MODEL 1
REMARK VINA RESULT:      -8.6      0.000      0.000
REMARK  Name = 
REMARK  9 active torsions:
REMARK  status: ('A' for Active; 'I' for Inactive)
REMARK    1  A    between atoms: O_2  and  C_3
REMARK    2  A    between atoms: C_8  and  C_9
REMARK    3  A    between atoms: C_9  and  C_12
REMARK    4  A    between atoms: C_12  and  C_14
REMARK    5  A    between atoms: C_12  and  N_24
REMARK    6  A    between atoms: N_16  and  C_18
REMARK    7  A    between atoms: C_18  and  C_21
REMARK    8  A    between atoms: N_28  and  N_30
REMARK    9  A    between atoms: C_32  and  C_34
REMARK                            x       y       z     vdW  Elec       q    Type
REMARK                         _______ _______ _______ _____ _____    ______ ____
ROOT
ATOM      1  N   UNL     1      10.398   0.306  22.828  0.00  0.00    +0.000 N 
ATOM      2  H   UNL     1      11.145   0.487  23.489  0.00  0.00    +0.000 HD
ATOM      3  C   UNL     1       9.606  -0.484  23.619  0.00  0.00    +0.000 C 
ATOM      4  O   UNL     1       9.314  -0.169  24.730  0.00  0.00    +0.000 OA
ATOM      5  N   UNL     1       9.490  -1.738  23.139  0.00  0.00    +0.000 N 
ATOM      6  H   UNL     1       8.490  -1.880  23.149  0.00  0.00    +0.000 HD
ENDROOT
BRANCH   5   7
ATOM      7  N   UNL     1       9.999  -2.618  23.985  0.00  0.00    +0.000 N 
ATOM      8  H   UNL     1      10.387  -2.215  24.756  0.00  0.00    +0.000 HD
ATOM      9  C   UNL     1       9.206  -3.631  24.312  0.00  0.00    +0.000 C 
ATOM     10  O   UNL     1       9.736  -4.656  24.781  0.00  0.00    +0.000 OA
BRANCH   9  11
ATOM     11  C   UNL     1       7.738  -3.425  24.512  0.00  0.00    +0.000 C 
ATOM     12  S   UNL     1       6.865  -3.714  22.938  0.00  0.00    +0.000 S 
ATOM     13  C   UNL     1       6.472  -5.392  23.362  0.00  0.00    +0.000 C 
ATOM     14  C   UNL     1       6.310  -5.399  24.766  0.00  0.00    +0.000 C 
ATOM     15  C   UNL     1       7.182  -4.534  25.401  0.00  0.00    +0.000 C 
ATOM     16  C   UNL     1       5.139  -5.993  25.711  0.00  0.00    +0.000 C 
ATOM     17  C   UNL     1       4.516  -6.850  24.459  0.00  0.00    +0.000 C 
ATOM     18  C   UNL     1       4.256  -6.076  23.194  0.00  0.00    +0.000 C 
ATOM     19  C   UNL     1       5.571  -5.885  22.332  0.00  0.00    +0.000 C 
ENDBRANCH   9  11
ENDBRANCH   5   7
BRANCH   1  20
ATOM     20  C   UNL     1       9.746   1.521  22.292  0.00  0.00    +0.000 C 
BRANCH  20  21
ATOM     21  C   UNL     1      10.128   2.666  23.219  0.00  0.00    +0.000 C 
ATOM     22  O   UNL     1      11.113   2.484  23.948  0.00  0.00    +0.000 OA
ATOM     23  N   UNL     1       9.698   3.900  22.966  0.00  0.00    +0.000 N 
ATOM     24  H   UNL     1       9.971   4.169  22.053  0.00  0.00    +0.000 HD
BRANCH  23  25
ATOM     25  C   UNL     1       9.880   4.946  23.970  0.00  0.00    +0.000 C 
BRANCH  25  26
ATOM     26  C   UNL     1      11.255   5.476  23.883  0.00  0.00    +0.000 C 
ATOM     27  C   UNL     1      12.391   5.844  23.792  0.00  0.00    +0.000 C 
ATOM     28 BR   UNL     1      12.978   5.395  22.449  0.00  0.00    +0.000 Br
ENDBRANCH  25  26
ENDBRANCH  23  25
ENDBRANCH  20  21
BRANCH  20  29
ATOM     29  C   UNL     1       8.205   1.468  22.115  0.00  0.00    +0.000 C 
BRANCH  29  33
ATOM     30  C   UNL     1       5.581   0.041  19.063  0.00  0.00    +0.000 A 
ATOM     31  C   UNL     1       5.399   1.386  19.768  0.00  0.00    +0.000 A 
ATOM     32  C   UNL     1       6.325   2.048  20.683  0.00  0.00    +0.000 A 
ATOM     33  C   UNL     1       7.643   1.292  20.790  0.00  0.00    +0.000 A 
ATOM     34  C   UNL     1       8.025   0.009  20.152  0.00  0.00    +0.000 A 
ATOM     35  C   UNL     1       6.750  -0.639  19.634  0.00  0.00    +0.000 A 
BRANCH  30  37
ATOM     36  H   UNL     1       5.716   1.046  17.465  0.00  0.00    +0.000 HD
ATOM     37  O   UNL     1       5.201   0.365  17.853  0.00  0.00    +0.000 OA
ENDBRANCH  30  37
ENDBRANCH  29  33
ENDBRANCH  20  29
ENDBRANCH   1  20
TORSDOF 9
ENDMDL
MODEL 2
REMARK VINA RESULT:      -8.1      2.402      2.830
REMARK  Name = 
REMARK  9 active torsions:
REMARK  status: ('A' for Active; 'I' for Inactive)
REMARK    1  A    between atoms: O_2  and  C_3
REMARK    2  A    between atoms: C_8  and  C_9
REMARK    3  A    between atoms: C_9  and  C_12
REMARK    4  A    between atoms: C_12  and  C_14
REMARK    5  A    between atoms: C_12  and  N_24
REMARK    6  A    between atoms: N_16  and  C_18
REMARK    7  A    between atoms: C_18  and  C_21
REMARK    8  A    between atoms: N_28  and  N_30
REMARK    9  A    between atoms: C_32  and  C_34
REMARK                            x       y       z     vdW  Elec       q    Type
REMARK                         _______ _______ _______ _____ _____    ______ ____
ROOT
ATOM      1  N   UNL     1       8.679  -0.806  23.126  0.00  0.00    +0.000 N 
ATOM      2  H   UNL     1       8.371  -1.263  22.275  0.00  0.00    +0.000 HD
ATOM      3  C   UNL     1       9.790  -1.566  23.379  0.00  0.00    +0.000 C 
ATOM      4  O   UNL     1      10.599  -1.798  22.536  0.00  0.00    +0.000 OA
ATOM      5  N   UNL     1       9.686  -2.258  24.531  0.00  0.00    +0.000 N 
ATOM      6  H   UNL     1      10.554  -2.034  24.996  0.00  0.00    +0.000 HD
ENDROOT
BRANCH   5   7
ATOM      7  N   UNL     1       9.712  -3.561  24.305  0.00  0.00    +0.000 N 
ATOM      8  H   UNL     1      10.358  -4.019  24.835  0.00  0.00    +0.000 HD
ATOM      9  C   UNL     1       8.537  -4.177  24.331  0.00  0.00    +0.000 C 
ATOM     10  O   UNL     1       8.448  -5.285  23.771  0.00  0.00    +0.000 OA
BRANCH   9  11
ATOM     11  C   UNL     1       7.486  -3.787  25.322  0.00  0.00    +0.000 C 
ATOM     12  S   UNL     1       5.850  -4.310  24.712  0.00  0.00    +0.000 S 
ATOM     13  C   UNL     1       5.881  -5.814  25.654  0.00  0.00    +0.000 C 
ATOM     14  C   UNL     1       6.609  -5.508  26.827  0.00  0.00    +0.000 C 
ATOM     15  C   UNL     1       7.642  -4.623  26.590  0.00  0.00    +0.000 C 
ATOM     16  C   UNL     1       6.287  -5.770  28.391  0.00  0.00    +0.000 C 
ATOM     17  C   UNL     1       5.074  -6.804  28.004  0.00  0.00    +0.000 C 
ATOM     18  C   UNL     1       4.058  -6.291  27.018  0.00  0.00    +0.000 C 
ATOM     19  C   UNL     1       4.565  -6.419  25.522  0.00  0.00    +0.000 C 
ENDBRANCH   9  11
ENDBRANCH   5   7
BRANCH   1  20
ATOM     20  C   UNL     1       8.924   0.647  22.987  0.00  0.00    +0.000 C 
BRANCH  20  21
ATOM     21  C   UNL     1       8.174   1.326  24.123  0.00  0.00    +0.000 C 
ATOM     22  O   UNL     1       7.339   0.637  24.726  0.00  0.00    +0.000 OA
ATOM     23  N   UNL     1       8.670   2.426  24.685  0.00  0.00    +0.000 N 
ATOM     24  H   UNL     1       9.587   2.249  25.014  0.00  0.00    +0.000 HD
BRANCH  23  25
ATOM     25  C   UNL     1       7.846   3.193  25.616  0.00  0.00    +0.000 C 
BRANCH  25  26
ATOM     26  C   UNL     1       7.012   4.147  24.860  0.00  0.00    +0.000 C 
ATOM     27  C   UNL     1       6.391   4.940  24.212  0.00  0.00    +0.000 C 
ATOM     28 BR   UNL     1       6.729   4.778  22.726  0.00  0.00    +0.000 Br
ENDBRANCH  25  26
ENDBRANCH  23  25
ENDBRANCH  20  21
BRANCH  20  29
ATOM     29  C   UNL     1       8.539   1.294  21.630  0.00  0.00    +0.000 C 
BRANCH  29  33
ATOM     30  C   UNL     1       5.886   0.737  18.331  0.00  0.00    +0.000 A 
ATOM     31  C   UNL     1       7.218  -0.001  18.474  0.00  0.00    +0.000 A 
ATOM     32  C   UNL     1       8.106  -0.026  19.632  0.00  0.00    +0.000 A 
ATOM     33  C   UNL     1       7.492   0.698  20.824  0.00  0.00    +0.000 A 
ATOM     34  C   UNL     1       6.203   1.426  20.897  0.00  0.00    +0.000 A 
ATOM     35  C   UNL     1       5.726   1.649  19.470  0.00  0.00    +0.000 A 
BRANCH  30  37
ATOM     36  H   UNL     1       4.956  -0.066  16.890  0.00  0.00    +0.000 HD
ATOM     37  O   UNL     1       5.157  -0.209  17.795  0.00  0.00    +0.000 OA
ENDBRANCH  30  37
ENDBRANCH  29  33
ENDBRANCH  20  29
ENDBRANCH   1  20
TORSDOF 9
ENDMDL
MODEL 3
REMARK VINA RESULT:      -8.0      2.807      3.851
REMARK  Name = 
REMARK  9 active torsions:
REMARK  status: ('A' for Active; 'I' for Inactive)
REMARK    1  A    between atoms: O_2  and  C_3
REMARK    2  A    between atoms: C_8  and  C_9
REMARK    3  A    between atoms: C_9  and  C_12
REMARK    4  A    between atoms: C_12  and  C_14
REMARK    5  A    between atoms: C_12  and  N_24
REMARK    6  A    between atoms: N_16  and  C_18
REMARK    7  A    between atoms: C_18  and  C_21
REMARK    8  A    between atoms: N_28  and  N_30
REMARK    9  A    between atoms: C_32  and  C_34
REMARK                            x       y       z     vdW  Elec       q    Type
REMARK                         _______ _______ _______ _____ _____    ______ ____
ROOT
ATOM      1  N   UNL     1       8.668  -2.958  24.250  0.00  0.00    +0.000 N 
ATOM      2  H   UNL     1       8.290  -3.658  23.621  0.00  0.00    +0.000 HD
ATOM      3  C   UNL     1       9.376  -3.786  25.080  0.00  0.00    +0.000 C 
ATOM      4  O   UNL     1      10.111  -4.622  24.657  0.00  0.00    +0.000 OA
ATOM      5  N   UNL     1       8.909  -3.766  26.344  0.00  0.00    +0.000 N 
ATOM      6  H   UNL     1       9.750  -3.609  26.882  0.00  0.00    +0.000 HD
ENDROOT
BRANCH   5   7
ATOM      7  N   UNL     1       8.457  -4.957  26.701  0.00  0.00    +0.000 N 
ATOM      8  H   UNL     1       8.859  -5.285  27.500  0.00  0.00    +0.000 HD
ATOM      9  C   UNL     1       7.137  -5.090  26.731  0.00  0.00    +0.000 C 
ATOM     10  O   UNL     1       6.668  -6.242  26.686  0.00  0.00    +0.000 OA
BRANCH   9  11
ATOM     11  C   UNL     1       6.262  -3.976  27.212  0.00  0.00    +0.000 C 
ATOM     12  S   UNL     1       5.368  -3.251  25.799  0.00  0.00    +0.000 S 
ATOM     13  C   UNL     1       3.920  -4.234  26.097  0.00  0.00    +0.000 C 
ATOM     14  C   UNL     1       3.870  -4.415  27.499  0.00  0.00    +0.000 C 
ATOM     15  C   UNL     1       5.127  -4.546  28.058  0.00  0.00    +0.000 C 
ATOM     16  C   UNL     1       2.671  -4.215  28.566  0.00  0.00    +0.000 C 
ATOM     17  C   UNL     1       1.564  -4.124  27.359  0.00  0.00    +0.000 C 
ATOM     18  C   UNL     1       1.870  -3.147  26.255  0.00  0.00    +0.000 C 
ATOM     19  C   UNL     1       2.888  -3.744  25.198  0.00  0.00    +0.000 C 
ENDBRANCH   9  11
ENDBRANCH   5   7
BRANCH   1  20
ATOM     20  C   UNL     1       9.460  -1.900  23.584  0.00  0.00    +0.000 C 
BRANCH  20  21
ATOM     21  C   UNL     1       9.139  -0.598  24.301  0.00  0.00    +0.000 C 
ATOM     22  O   UNL     1       8.420  -0.681  25.307  0.00  0.00    +0.000 OA
ATOM     23  N   UNL     1       9.902   0.476  24.109  0.00  0.00    +0.000 N 
ATOM     24  H   UNL     1      10.844   0.259  24.320  0.00  0.00    +0.000 HD
BRANCH  23  25
ATOM     25  C   UNL     1       9.464   1.772  24.621  0.00  0.00    +0.000 C 
BRANCH  25  26
ATOM     26  C   UNL     1       8.523   2.385  23.663  0.00  0.00    +0.000 C 
ATOM     27  C   UNL     1       7.740   2.821  22.868  0.00  0.00    +0.000 C 
ATOM     28 BR   UNL     1       6.387   2.119  23.032  0.00  0.00    +0.000 Br
ENDBRANCH  25  26
ENDBRANCH  23  25
ENDBRANCH  20  21
BRANCH  20  29
ATOM     29  C   UNL     1       9.258  -1.732  22.055  0.00  0.00    +0.000 C 
BRANCH  29  33
ATOM     30  C   UNL     1       6.182  -0.499  19.361  0.00  0.00    +0.000 A 
ATOM     31  C   UNL     1       5.975  -1.555  20.448  0.00  0.00    +0.000 A 
ATOM     32  C   UNL     1       6.889  -1.918  21.528  0.00  0.00    +0.000 A 
ATOM     33  C   UNL     1       8.107  -1.002  21.562  0.00  0.00    +0.000 A 
ATOM     34  C   UNL     1       8.458   0.100  20.634  0.00  0.00    +0.000 A 
ATOM     35  C   UNL     1       7.577  -0.044  19.403  0.00  0.00    +0.000 A 
BRANCH  30  37
ATOM     36  H   UNL     1       5.038   0.951  19.777  0.00  0.00    +0.000 HD
ATOM     37  O   UNL     1       5.016   0.094  19.395  0.00  0.00    +0.000 OA
ENDBRANCH  30  37
ENDBRANCH  29  33
ENDBRANCH  20  29
ENDBRANCH   1  20
TORSDOF 9
ENDMDL
MODEL 4
REMARK VINA RESULT:      -8.0      2.937      8.152
REMARK  Name = 
REMARK  9 active torsions:
REMARK  status: ('A' for Active; 'I' for Inactive)
REMARK    1  A    between atoms: O_2  and  C_3
REMARK    2  A    between atoms: C_8  and  C_9
REMARK    3  A    between atoms: C_9  and  C_12
REMARK    4  A    between atoms: C_12  and  C_14
REMARK    5  A    between atoms: C_12  and  N_24
REMARK    6  A    between atoms: N_16  and  C_18
REMARK    7  A    between atoms: C_18  and  C_21
REMARK    8  A    between atoms: N_28  and  N_30
REMARK    9  A    between atoms: C_32  and  C_34
REMARK                            x       y       z     vdW  Elec       q    Type
REMARK                         _______ _______ _______ _____ _____    ______ ____
ROOT
ATOM      1  N   UNL     1       7.919  -2.520  23.831  0.00  0.00    +0.000 N 
ATOM      2  H   UNL     1       8.067  -2.349  24.819  0.00  0.00    +0.000 HD
ATOM      3  C   UNL     1       9.222  -2.713  23.455  0.00  0.00    +0.000 C 
ATOM      4  O   UNL     1       9.947  -3.444  24.053  0.00  0.00    +0.000 OA
ATOM      5  N   UNL     1       9.650  -1.773  22.589  0.00  0.00    +0.000 N 
ATOM      6  H   UNL     1      10.055  -2.330  21.849  0.00  0.00    +0.000 HD
ENDROOT
BRANCH   5   7
ATOM      7  N   UNL     1      10.642  -1.068  23.107  0.00  0.00    +0.000 N 
ATOM      8  H   UNL     1      11.360  -0.928  22.496  0.00  0.00    +0.000 HD
ATOM      9  C   UNL     1      10.296   0.058  23.717  0.00  0.00    +0.000 C 
ATOM     10  O   UNL     1      11.102   0.554  24.525  0.00  0.00    +0.000 OA
BRANCH   9  11
ATOM     11  C   UNL     1       9.200   0.921  23.174  0.00  0.00    +0.000 C 
ATOM     12  S   UNL     1       7.806   0.942  24.347  0.00  0.00    +0.000 S 
ATOM     13  C   UNL     1       8.342   2.460  25.095  0.00  0.00    +0.000 C 
ATOM     14  C   UNL     1       8.962   3.193  24.057  0.00  0.00    +0.000 C 
ATOM     15  C   UNL     1       9.649   2.380  23.176  0.00  0.00    +0.000 C 
ATOM     16  C   UNL     1       8.781   4.723  23.565  0.00  0.00    +0.000 C 
ATOM     17  C   UNL     1       7.956   5.101  24.932  0.00  0.00    +0.000 C 
ATOM     18  C   UNL     1       6.805   4.195  25.280  0.00  0.00    +0.000 C 
ATOM     19  C   UNL     1       7.288   2.873  26.007  0.00  0.00    +0.000 C 
ENDBRANCH   9  11
ENDBRANCH   5   7
BRANCH   1  20
ATOM     20  C   UNL     1       7.002  -3.643  23.534  0.00  0.00    +0.000 C 
BRANCH  20  21
ATOM     21  C   UNL     1       6.340  -3.325  22.201  0.00  0.00    +0.000 C 
ATOM     22  O   UNL     1       5.553  -4.172  21.756  0.00  0.00    +0.000 OA
ATOM     23  N   UNL     1       6.291  -2.068  21.764  0.00  0.00    +0.000 N 
ATOM     24  H   UNL     1       5.856  -1.494  22.443  0.00  0.00    +0.000 HD
BRANCH  23  25
ATOM     25  C   UNL     1       5.858  -1.798  20.395  0.00  0.00    +0.000 C 
BRANCH  25  26
ATOM     26  C   UNL     1       6.365  -0.479  19.971  0.00  0.00    +0.000 C 
ATOM     27  C   UNL     1       6.787   0.565  19.565  0.00  0.00    +0.000 C 
ATOM     28 BR   UNL     1       6.121   0.911  18.228  0.00  0.00    +0.000 Br
ENDBRANCH  25  26
ENDBRANCH  23  25
ENDBRANCH  20  21
BRANCH  20  29
ATOM     29  C   UNL     1       5.924  -3.966  24.602  0.00  0.00    +0.000 C 
BRANCH  29  33
ATOM     30  C   UNL     1       5.335  -6.430  28.039  0.00  0.00    +0.000 A 
ATOM     31  C   UNL     1       4.825  -6.796  26.645  0.00  0.00    +0.000 A 
ATOM     32  C   UNL     1       5.122  -6.127  25.381  0.00  0.00    +0.000 A 
ATOM     33  C   UNL     1       6.162  -5.028  25.560  0.00  0.00    +0.000 A 
ATOM     34  C   UNL     1       6.806  -4.563  26.811  0.00  0.00    +0.000 A 
ATOM     35  C   UNL     1       6.000  -5.123  27.973  0.00  0.00    +0.000 A 
BRANCH  30  37
ATOM     36  H   UNL     1       5.649  -8.284  27.817  0.00  0.00    +0.000 HD
ATOM     37  O   UNL     1       5.673  -7.617  28.476  0.00  0.00    +0.000 OA
ENDBRANCH  30  37
ENDBRANCH  29  33
ENDBRANCH  20  29
ENDBRANCH   1  20
TORSDOF 9
ENDMDL
MODEL 5
REMARK VINA RESULT:      -8.0      2.970      3.748
REMARK  Name = 
REMARK  9 active torsions:
REMARK  status: ('A' for Active; 'I' for Inactive)
REMARK    1  A    between atoms: O_2  and  C_3
REMARK    2  A    between atoms: C_8  and  C_9
REMARK    3  A    between atoms: C_9  and  C_12
REMARK    4  A    between atoms: C_12  and  C_14
REMARK    5  A    between atoms: C_12  and  N_24
REMARK    6  A    between atoms: N_16  and  C_18
REMARK    7  A    between atoms: C_18  and  C_21
REMARK    8  A    between atoms: N_28  and  N_30
REMARK    9  A    between atoms: C_32  and  C_34
REMARK                            x       y       z     vdW  Elec       q    Type
REMARK                         _______ _______ _______ _____ _____    ______ ____
ROOT
ATOM      1  N   UNL     1       8.707  -0.740  23.086  0.00  0.00    +0.000 N 
ATOM      2  H   UNL     1       8.424  -1.173  22.214  0.00  0.00    +0.000 HD
ATOM      3  C   UNL     1       9.796  -1.522  23.363  0.00  0.00    +0.000 C 
ATOM      4  O   UNL     1      10.633  -1.747  22.546  0.00  0.00    +0.000 OA
ATOM      5  N   UNL     1       9.639  -2.237  24.495  0.00  0.00    +0.000 N 
ATOM      6  H   UNL     1      10.492  -2.036  24.997  0.00  0.00    +0.000 HD
ENDROOT
BRANCH   5   7
ATOM      7  N   UNL     1       9.654  -3.535  24.241  0.00  0.00    +0.000 N 
ATOM      8  H   UNL     1      10.260  -4.017  24.797  0.00  0.00    +0.000 HD
ATOM      9  C   UNL     1       8.469  -4.129  24.184  0.00  0.00    +0.000 C 
ATOM     10  O   UNL     1       8.394  -5.222  23.595  0.00  0.00    +0.000 OA
BRANCH   9  11
ATOM     11  C   UNL     1       7.369  -3.740  25.122  0.00  0.00    +0.000 C 
ATOM     12  S   UNL     1       5.785  -4.396  24.504  0.00  0.00    +0.000 S 
ATOM     13  C   UNL     1       5.874  -5.833  25.541  0.00  0.00    +0.000 C 
ATOM     14  C   UNL     1       6.549  -5.413  26.710  0.00  0.00    +0.000 C 
ATOM     15  C   UNL     1       7.536  -4.484  26.443  0.00  0.00    +0.000 C 
ATOM     16  C   UNL     1       6.197  -5.595  28.279  0.00  0.00    +0.000 C 
ATOM     17  C   UNL     1       5.057  -6.721  27.928  0.00  0.00    +0.000 C 
ATOM     18  C   UNL     1       4.043  -6.331  26.886  0.00  0.00    +0.000 C 
ATOM     19  C   UNL     1       4.599  -6.522  25.415  0.00  0.00    +0.000 C 
ENDBRANCH   9  11
ENDBRANCH   5   7
BRANCH   1  20
ATOM     20  C   UNL     1       8.977   0.712  22.988  0.00  0.00    +0.000 C 
BRANCH  20  21
ATOM     21  C   UNL     1       8.555   1.324  24.315  0.00  0.00    +0.000 C 
ATOM     22  O   UNL     1       9.156   2.348  24.670  0.00  0.00    +0.000 OA
ATOM     23  N   UNL     1       7.367   1.028  24.838  0.00  0.00    +0.000 N 
ATOM     24  H   UNL     1       6.652   1.238  24.187  0.00  0.00    +0.000 HD
BRANCH  23  25
ATOM     25  C   UNL     1       7.061   1.438  26.207  0.00  0.00    +0.000 C 
BRANCH  25  26
ATOM     26  C   UNL     1       6.385   0.332  26.911  0.00  0.00    +0.000 C 
ATOM     27  C   UNL     1       5.778  -0.542  27.461  0.00  0.00    +0.000 C 
ATOM     28 BR   UNL     1       4.745  -1.142  26.501  0.00  0.00    +0.000 Br
ENDBRANCH  25  26
ENDBRANCH  23  25
ENDBRANCH  20  21
BRANCH  20  29
ATOM     29  C   UNL     1       8.308   1.471  21.812  0.00  0.00    +0.000 C 
BRANCH  29  33
ATOM     30  C   UNL     1       6.002   0.592  18.327  0.00  0.00    +0.000 A 
ATOM     31  C   UNL     1       7.351  -0.060  18.629  0.00  0.00    +0.000 A 
ATOM     32  C   UNL     1       8.130   0.026  19.862  0.00  0.00    +0.000 A 
ATOM     33  C   UNL     1       7.372   0.774  20.952  0.00  0.00    +0.000 A 
ATOM     34  C   UNL     1       6.044   1.429  20.868  0.00  0.00    +0.000 A 
ATOM     35  C   UNL     1       5.689   1.550  19.394  0.00  0.00    +0.000 A 
BRANCH  30  37
ATOM     36  H   UNL     1       5.688  -1.258  18.072  0.00  0.00    +0.000 HD
ATOM     37  O   UNL     1       5.376  -0.421  17.784  0.00  0.00    +0.000 OA
ENDBRANCH  30  37
ENDBRANCH  29  33
ENDBRANCH  20  29
ENDBRANCH   1  20
TORSDOF 9
ENDMDL
MODEL 6
REMARK VINA RESULT:      -7.5      2.861      3.376
REMARK  Name = 
REMARK  9 active torsions:
REMARK  status: ('A' for Active; 'I' for Inactive)
REMARK    1  A    between atoms: O_2  and  C_3
REMARK    2  A    between atoms: C_8  and  C_9
REMARK    3  A    between atoms: C_9  and  C_12
REMARK    4  A    between atoms: C_12  and  C_14
REMARK    5  A    between atoms: C_12  and  N_24
REMARK    6  A    between atoms: N_16  and  C_18
REMARK    7  A    between atoms: C_18  and  C_21
REMARK    8  A    between atoms: N_28  and  N_30
REMARK    9  A    between atoms: C_32  and  C_34
REMARK                            x       y       z     vdW  Elec       q    Type
REMARK                         _______ _______ _______ _____ _____    ______ ____
ROOT
ATOM      1  N   UNL     1       8.784   0.569  23.629  0.00  0.00    +0.000 N 
ATOM      2  H   UNL     1       9.390  -0.033  23.083  0.00  0.00    +0.000 HD
ATOM      3  C   UNL     1       9.330   0.349  24.865  0.00  0.00    +0.000 C 
ATOM      4  O   UNL     1      10.504   0.410  25.054  0.00  0.00    +0.000 OA
ATOM      5  N   UNL     1       8.463  -0.242  25.711  0.00  0.00    +0.000 N 
ATOM      6  H   UNL     1       8.521   0.351  26.528  0.00  0.00    +0.000 HD
ENDROOT
BRANCH   5   7
ATOM      7  N   UNL     1       8.901  -1.432  26.084  0.00  0.00    +0.000 N 
ATOM      8  H   UNL     1       8.693  -1.640  26.991  0.00  0.00    +0.000 HD
ATOM      9  C   UNL     1       8.603  -2.440  25.273  0.00  0.00    +0.000 C 
ATOM     10  O   UNL     1       9.284  -3.478  25.362  0.00  0.00    +0.000 OA
BRANCH   9  11
ATOM     11  C   UNL     1       7.276  -2.506  24.586  0.00  0.00    +0.000 C 
ATOM     12  S   UNL     1       7.504  -3.116  22.884  0.00  0.00    +0.000 S 
ATOM     13  C   UNL     1       7.116  -4.788  23.335  0.00  0.00    +0.000 C 
ATOM     14  C   UNL     1       6.176  -4.685  24.387  0.00  0.00    +0.000 C 
ATOM     15  C   UNL     1       6.429  -3.608  25.215  0.00  0.00    +0.000 C 
ATOM     16  C   UNL     1       4.745  -5.400  24.624  0.00  0.00    +0.000 C 
ATOM     17  C   UNL     1       5.049  -6.483  23.430  0.00  0.00    +0.000 C 
ATOM     18  C   UNL     1       5.486  -5.905  22.110  0.00  0.00    +0.000 C 
ATOM     19  C   UNL     1       7.029  -5.547  22.099  0.00  0.00    +0.000 C 
ENDBRANCH   9  11
ENDBRANCH   5   7
BRANCH   1  20
ATOM     20  C   UNL     1       8.763   1.981  23.186  0.00  0.00    +0.000 C 
BRANCH  20  21
ATOM     21  C   UNL     1       7.948   2.749  24.216  0.00  0.00    +0.000 C 
ATOM     22  O   UNL     1       8.475   3.762  24.697  0.00  0.00    +0.000 OA
ATOM     23  N   UNL     1       6.629   2.583  24.280  0.00  0.00    +0.000 N 
ATOM     24  H   UNL     1       6.224   2.773  23.397  0.00  0.00    +0.000 HD
BRANCH  23  25
ATOM     25  C   UNL     1       5.886   3.147  25.405  0.00  0.00    +0.000 C 
BRANCH  25  26
ATOM     26  C   UNL     1       5.696   2.110  26.437  0.00  0.00    +0.000 C 
ATOM     27  C   UNL     1       5.479   1.258  27.251  0.00  0.00    +0.000 C 
ATOM     28 BR   UNL     1       4.864   0.031  26.568  0.00  0.00    +0.000 Br
ENDBRANCH  25  26
ENDBRANCH  23  25
ENDBRANCH  20  21
BRANCH  20  29
ATOM     29  C   UNL     1       8.221   2.259  21.759  0.00  0.00    +0.000 C 
BRANCH  29  33
ATOM     30  C   UNL     1       6.130   0.269  18.613  0.00  0.00    +0.000 A 
ATOM     31  C   UNL     1       7.523  -0.142  19.088  0.00  0.00    +0.000 A 
ATOM     32  C   UNL     1       8.248   0.343  20.260  0.00  0.00    +0.000 A 
ATOM     33  C   UNL     1       7.385   1.271  21.107  0.00  0.00    +0.000 A 
ATOM     34  C   UNL     1       6.006   1.745  20.841  0.00  0.00    +0.000 A 
ATOM     35  C   UNL     1       5.692   1.438  19.386  0.00  0.00    +0.000 A 
BRANCH  30  37
ATOM     36  H   UNL     1       6.188  -1.623  18.570  0.00  0.00    +0.000 HD
ATOM     37  O   UNL     1       5.621  -0.908  18.352  0.00  0.00    +0.000 OA
ENDBRANCH  30  37
ENDBRANCH  29  33
ENDBRANCH  20  29
ENDBRANCH   1  20
TORSDOF 9
ENDMDL
MODEL 7
REMARK VINA RESULT:      -7.3      3.070      7.554
REMARK  Name = 
REMARK  9 active torsions:
REMARK  status: ('A' for Active; 'I' for Inactive)
REMARK    1  A    between atoms: O_2  and  C_3
REMARK    2  A    between atoms: C_8  and  C_9
REMARK    3  A    between atoms: C_9  and  C_12
REMARK    4  A    between atoms: C_12  and  C_14
REMARK    5  A    between atoms: C_12  and  N_24
REMARK    6  A    between atoms: N_16  and  C_18
REMARK    7  A    between atoms: C_18  and  C_21
REMARK    8  A    between atoms: N_28  and  N_30
REMARK    9  A    between atoms: C_32  and  C_34
REMARK                            x       y       z     vdW  Elec       q    Type
REMARK                         _______ _______ _______ _____ _____    ______ ____
ROOT
ATOM      1  N   UNL     1       7.961  -2.557  23.254  0.00  0.00    +0.000 N 
ATOM      2  H   UNL     1       7.804  -2.404  24.244  0.00  0.00    +0.000 HD
ATOM      3  C   UNL     1       9.321  -2.402  23.231  0.00  0.00    +0.000 C 
ATOM      4  O   UNL     1      10.030  -2.960  24.009  0.00  0.00    +0.000 OA
ATOM      5  N   UNL     1       9.705  -1.343  22.491  0.00  0.00    +0.000 N 
ATOM      6  H   UNL     1      10.411  -1.745  21.890  0.00  0.00    +0.000 HD
ENDROOT
BRANCH   5   7
ATOM      7  N   UNL     1      10.321  -0.441  23.237  0.00  0.00    +0.000 N 
ATOM      8  H   UNL     1      11.211  -0.262  22.947  0.00  0.00    +0.000 HD
ATOM      9  C   UNL     1       9.648   0.679  23.465  0.00  0.00    +0.000 C 
ATOM     10  O   UNL     1       9.996   1.379  24.434  0.00  0.00    +0.000 OA
BRANCH   9  11
ATOM     11  C   UNL     1       8.802   1.299  22.398  0.00  0.00    +0.000 C 
ATOM     12  S   UNL     1       7.048   0.918  22.718  0.00  0.00    +0.000 S 
ATOM     13  C   UNL     1       6.769   2.465  23.541  0.00  0.00    +0.000 C 
ATOM     14  C   UNL     1       7.633   3.389  22.908  0.00  0.00    +0.000 C 
ATOM     15  C   UNL     1       8.835   2.818  22.536  0.00  0.00    +0.000 C 
ATOM     16  C   UNL     1       7.368   4.865  22.300  0.00  0.00    +0.000 C 
ATOM     17  C   UNL     1       5.911   4.950  23.049  0.00  0.00    +0.000 C 
ATOM     18  C   UNL     1       4.988   3.781  22.831  0.00  0.00    +0.000 C 
ATOM     19  C   UNL     1       5.339   2.562  23.781  0.00  0.00    +0.000 C 
ENDBRANCH   9  11
ENDBRANCH   5   7
BRANCH   1  20
ATOM     20  C   UNL     1       7.463  -3.855  22.748  0.00  0.00    +0.000 C 
BRANCH  20  21
ATOM     21  C   UNL     1       6.526  -3.542  21.590  0.00  0.00    +0.000 C 
ATOM     22  O   UNL     1       5.684  -4.406  21.309  0.00  0.00    +0.000 OA
ATOM     23  N   UNL     1       6.355  -2.283  21.193  0.00  0.00    +0.000 N 
ATOM     24  H   UNL     1       6.059  -1.728  21.957  0.00  0.00    +0.000 HD
BRANCH  23  25
ATOM     25  C   UNL     1       5.635  -2.011  19.951  0.00  0.00    +0.000 C 
BRANCH  25  26
ATOM     26  C   UNL     1       6.068  -0.709  19.408  0.00  0.00    +0.000 C 
ATOM     27  C   UNL     1       6.361   0.351  18.933  0.00  0.00    +0.000 C 
ATOM     28 BR   UNL     1       5.188   1.327  19.077  0.00  0.00    +0.000 Br
ENDBRANCH  25  26
ENDBRANCH  23  25
ENDBRANCH  20  21
BRANCH  20  29
ATOM     29  C   UNL     1       6.755  -4.780  23.773  0.00  0.00    +0.000 C 
BRANCH  29  33
ATOM     30  C   UNL     1       5.910  -1.859  26.770  0.00  0.00    +0.000 A 
ATOM     31  C   UNL     1       4.952  -2.191  25.625  0.00  0.00    +0.000 A 
ATOM     32  C   UNL     1       5.055  -3.284  24.662  0.00  0.00    +0.000 A 
ATOM     33  C   UNL     1       6.216  -4.214  24.993  0.00  0.00    +0.000 A 
ATOM     34  C   UNL     1       7.216  -4.090  26.081  0.00  0.00    +0.000 A 
ATOM     35  C   UNL     1       7.123  -2.673  26.624  0.00  0.00    +0.000 A 
BRANCH  30  37
ATOM     36  H   UNL     1       4.225  -2.078  27.605  0.00  0.00    +0.000 HD
ATOM     37  O   UNL     1       5.049  -1.650  27.734  0.00  0.00    +0.000 OA
ENDBRANCH  30  37
ENDBRANCH  29  33
ENDBRANCH  20  29
ENDBRANCH   1  20
TORSDOF 9
ENDMDL
MODEL 8
REMARK VINA RESULT:      -7.3      3.217      7.757
REMARK  Name = 
REMARK  9 active torsions:
REMARK  status: ('A' for Active; 'I' for Inactive)
REMARK    1  A    between atoms: O_2  and  C_3
REMARK    2  A    between atoms: C_8  and  C_9
REMARK    3  A    between atoms: C_9  and  C_12
REMARK    4  A    between atoms: C_12  and  C_14
REMARK    5  A    between atoms: C_12  and  N_24
REMARK    6  A    between atoms: N_16  and  C_18
REMARK    7  A    between atoms: C_18  and  C_21
REMARK    8  A    between atoms: N_28  and  N_30
REMARK    9  A    between atoms: C_32  and  C_34
REMARK                            x       y       z     vdW  Elec       q    Type
REMARK                         _______ _______ _______ _____ _____    ______ ____
ROOT
ATOM      1  N   UNL     1       6.099  -3.127  22.098  0.00  0.00    +0.000 N 
ATOM      2  H   UNL     1       6.967  -3.568  21.815  0.00  0.00    +0.000 HD
ATOM      3  C   UNL     1       5.663  -2.715  20.867  0.00  0.00    +0.000 C 
ATOM      4  O   UNL     1       5.644  -3.449  19.929  0.00  0.00    +0.000 OA
ATOM      5  N   UNL     1       5.588  -1.373  20.772  0.00  0.00    +0.000 N 
ATOM      6  H   UNL     1       4.655  -1.235  20.408  0.00  0.00    +0.000 HD
ENDROOT
BRANCH   5   7
ATOM      7  N   UNL     1       6.418  -0.915  19.850  0.00  0.00    +0.000 N 
ATOM      8  H   UNL     1       5.987  -0.372  19.196  0.00  0.00    +0.000 HD
ATOM      9  C   UNL     1       7.527  -0.344  20.302  0.00  0.00    +0.000 C 
ATOM     10  O   UNL     1       8.489  -0.241  19.518  0.00  0.00    +0.000 OA
BRANCH   9  11
ATOM     11  C   UNL     1       7.507   0.509  21.531  0.00  0.00    +0.000 C 
ATOM     12  S   UNL     1       7.921  -0.510  22.984  0.00  0.00    +0.000 S 
ATOM     13  C   UNL     1       9.631  -0.037  22.940  0.00  0.00    +0.000 C 
ATOM     14  C   UNL     1       9.643   1.286  22.443  0.00  0.00    +0.000 C 
ATOM     15  C   UNL     1       8.669   1.498  21.486  0.00  0.00    +0.000 C 
ATOM     16  C   UNL     1      10.372   2.629  22.976  0.00  0.00    +0.000 C 
ATOM     17  C   UNL     1      11.314   1.754  23.995  0.00  0.00    +0.000 C 
ATOM     18  C   UNL     1      10.593   0.784  24.892  0.00  0.00    +0.000 C 
ATOM     19  C   UNL     1      10.246  -0.570  24.146  0.00  0.00    +0.000 C 
ENDBRANCH   9  11
ENDBRANCH   5   7
BRANCH   1  20
ATOM     20  C   UNL     1       5.172  -4.015  22.834  0.00  0.00    +0.000 C 
BRANCH  20  21
ATOM     21  C   UNL     1       4.711  -3.243  24.062  0.00  0.00    +0.000 C 
ATOM     22  O   UNL     1       3.769  -3.730  24.703  0.00  0.00    +0.000 OA
ATOM     23  N   UNL     1       5.519  -2.350  24.630  0.00  0.00    +0.000 N 
ATOM     24  H   UNL     1       6.378  -2.779  24.869  0.00  0.00    +0.000 HD
BRANCH  23  25
ATOM     25  C   UNL     1       4.995  -1.459  25.663  0.00  0.00    +0.000 C 
BRANCH  25  26
ATOM     26  C   UNL     1       6.117  -0.870  26.418  0.00  0.00    +0.000 C 
ATOM     27  C   UNL     1       7.051  -0.366  26.973  0.00  0.00    +0.000 C 
ATOM     28 BR   UNL     1       7.185   1.099  26.539  0.00  0.00    +0.000 Br
ENDBRANCH  25  26
ENDBRANCH  23  25
ENDBRANCH  20  21
BRANCH  20  29
ATOM     29  C   UNL     1       5.718  -5.405  23.252  0.00  0.00    +0.000 C 
BRANCH  29  33
ATOM     30  C   UNL     1       8.553  -4.210  26.213  0.00  0.00    +0.000 A 
ATOM     31  C   UNL     1       7.320  -5.060  26.523  0.00  0.00    +0.000 A 
ATOM     32  C   UNL     1       6.395  -5.673  25.574  0.00  0.00    +0.000 A 
ATOM     33  C   UNL     1       6.864  -5.488  24.136  0.00  0.00    +0.000 A 
ATOM     34  C   UNL     1       8.048  -4.745  23.641  0.00  0.00    +0.000 A 
ATOM     35  C   UNL     1       8.551  -3.877  24.783  0.00  0.00    +0.000 A 
BRANCH  30  37
ATOM     36  H   UNL     1       9.339  -4.453  27.919  0.00  0.00    +0.000 HD
ATOM     37  O   UNL     1       9.417  -4.754  27.033  0.00  0.00    +0.000 OA
ENDBRANCH  30  37
ENDBRANCH  29  33
ENDBRANCH  20  29
ENDBRANCH   1  20
TORSDOF 9
ENDMDL
MODEL 9
REMARK VINA RESULT:      -7.2      3.251      4.451
REMARK  Name = 
REMARK  9 active torsions:
REMARK  status: ('A' for Active; 'I' for Inactive)
REMARK    1  A    between atoms: O_2  and  C_3
REMARK    2  A    between atoms: C_8  and  C_9
REMARK    3  A    between atoms: C_9  and  C_12
REMARK    4  A    between atoms: C_12  and  C_14
REMARK    5  A    between atoms: C_12  and  N_24
REMARK    6  A    between atoms: N_16  and  C_18
REMARK    7  A    between atoms: C_18  and  C_21
REMARK    8  A    between atoms: N_28  and  N_30
REMARK    9  A    between atoms: C_32  and  C_34
REMARK                            x       y       z     vdW  Elec       q    Type
REMARK                         _______ _______ _______ _____ _____    ______ ____
ROOT
ATOM      1  N   UNL     1       8.435  -0.661  24.257  0.00  0.00    +0.000 N 
ATOM      2  H   UNL     1       8.422  -0.586  23.246  0.00  0.00    +0.000 HD
ATOM      3  C   UNL     1       9.273  -1.738  24.376  0.00  0.00    +0.000 C 
ATOM      4  O   UNL     1      10.309  -1.796  23.790  0.00  0.00    +0.000 OA
ATOM      5  N   UNL     1       8.662  -2.804  24.929  0.00  0.00    +0.000 N 
ATOM      6  H   UNL     1       9.309  -3.068  25.660  0.00  0.00    +0.000 HD
ENDROOT
BRANCH   5   7
ATOM      7  N   UNL     1       8.623  -3.821  24.084  0.00  0.00    +0.000 N 
ATOM      8  H   UNL     1       9.064  -4.598  24.414  0.00  0.00    +0.000 HD
ATOM      9  C   UNL     1       7.429  -4.113  23.585  0.00  0.00    +0.000 C 
ATOM     10  O   UNL     1       7.385  -4.781  22.535  0.00  0.00    +0.000 OA
BRANCH   9  11
ATOM     11  C   UNL     1       6.199  -4.022  24.431  0.00  0.00    +0.000 C 
ATOM     12  S   UNL     1       4.721  -4.093  23.366  0.00  0.00    +0.000 S 
ATOM     13  C   UNL     1       4.512  -5.837  23.620  0.00  0.00    +0.000 C 
ATOM     14  C   UNL     1       4.977  -6.085  24.932  0.00  0.00    +0.000 C 
ATOM     15  C   UNL     1       6.058  -5.292  25.266  0.00  0.00    +0.000 C 
ATOM     16  C   UNL     1       4.319  -6.890  26.171  0.00  0.00    +0.000 C 
ATOM     17  C   UNL     1       3.193  -7.560  25.184  0.00  0.00    +0.000 C 
ATOM     18  C   UNL     1       2.427  -6.602  24.311  0.00  0.00    +0.000 C 
ATOM     19  C   UNL     1       3.242  -6.200  23.013  0.00  0.00    +0.000 C 
ENDBRANCH   9  11
ENDBRANCH   5   7
BRANCH   1  20
ATOM     20  C   UNL     1       8.878   0.566  24.956  0.00  0.00    +0.000 C 
BRANCH  20  21
ATOM     21  C   UNL     1       7.755   0.957  25.906  0.00  0.00    +0.000 C 
ATOM     22  O   UNL     1       7.550   2.170  26.053  0.00  0.00    +0.000 OA
ATOM     23  N   UNL     1       6.811   0.073  26.221  0.00  0.00    +0.000 N 
ATOM     24  H   UNL     1       6.382  -0.268  25.397  0.00  0.00    +0.000 HD
BRANCH  23  25
ATOM     25  C   UNL     1       5.869   0.378  27.296  0.00  0.00    +0.000 C 
BRANCH  25  26
ATOM     26  C   UNL     1       5.150  -0.851  27.681  0.00  0.00    +0.000 C 
ATOM     27  C   UNL     1       4.510  -1.823  27.965  0.00  0.00    +0.000 C 
ATOM     28 BR   UNL     1       3.725  -2.306  26.739  0.00  0.00    +0.000 Br
ENDBRANCH  25  26
ENDBRANCH  23  25
ENDBRANCH  20  21
BRANCH  20  29
ATOM     29  C   UNL     1       9.271   1.775  24.067  0.00  0.00    +0.000 C 
BRANCH  29  33
ATOM     30  C   UNL     1       7.891   0.256  20.322  0.00  0.00    +0.000 A 
ATOM     31  C   UNL     1       7.061   1.182  21.212  0.00  0.00    +0.000 A 
ATOM     32  C   UNL     1       7.495   1.898  22.407  0.00  0.00    +0.000 A 
ATOM     33  C   UNL     1       8.992   1.737  22.645  0.00  0.00    +0.000 A 
ATOM     34  C   UNL     1       9.966   0.929  21.872  0.00  0.00    +0.000 A 
ATOM     35  C   UNL     1       9.170  -0.019  20.988  0.00  0.00    +0.000 A 
BRANCH  30  37
ATOM     36  H   UNL     1       6.759   0.309  18.806  0.00  0.00    +0.000 HD
ATOM     37  O   UNL     1       7.542   0.701  19.141  0.00  0.00    +0.000 OA
ENDBRANCH  30  37
ENDBRANCH  29  33
ENDBRANCH  20  29
ENDBRANCH   1  20
TORSDOF 9
ENDMDL
