MODEL 1
REMARK VINA RESULT:      -8.6      0.000      0.000
REMARK  Name = 
REMARK  6 active torsions:
REMARK  status: ('A' for Active; 'I' for Inactive)
REMARK    1  A    between atoms: N_5  and  C_6
REMARK    2  A    between atoms: N_5  and  C_10
REMARK    3  A    between atoms: C_10  and  N_12
REMARK    4  A    between atoms: C_10  and  C_42
REMARK    5  A    between atoms: C_26  and  C_28
REMARK    6  A    between atoms: N_50  and  C_51
REMARK                            x       y       z     vdW  Elec       q    Type
REMARK                         _______ _______ _______ _____ _____    ______ ____
ROOT
ATOM      1  N   UNL     1       7.647  -2.092  22.341  0.00  0.00    +0.000 NA
ATOM      2  C   UNL     1       8.747  -1.839  23.196  0.00  0.00    +0.000 C 
ATOM      3  C   UNL     1       9.668  -0.883  22.984  0.00  0.00    +0.000 A 
ATOM      4  C   UNL     1      10.196  -0.329  24.315  0.00  0.00    +0.000 A 
ATOM      5  C   UNL     1      10.827   0.984  24.544  0.00  0.00    +0.000 A 
ATOM      6  C   UNL     1      10.691   1.729  23.235  0.00  0.00    +0.000 A 
ATOM      7  C   UNL     1      10.080   1.501  21.955  0.00  0.00    +0.000 A 
ATOM      8  C   UNL     1       9.287   0.315  22.130  0.00  0.00    +0.000 A 
ATOM      9  C   UNL     1       7.882   0.194  21.627  0.00  0.00    +0.000 C 
ATOM     10  C   UNL     1       7.743  -1.264  21.222  0.00  0.00    +0.000 C 
ENDROOT
BRANCH   9  11
ATOM     11  C   UNL     1       6.956   0.843  22.487  0.00  0.00    +0.000 A 
ATOM     12  C   UNL     1       6.528   2.120  21.774  0.00  0.00    +0.000 A 
ATOM     13  C   UNL     1       6.568   3.498  22.330  0.00  0.00    +0.000 A 
ATOM     14  C   UNL     1       6.889   3.369  23.767  0.00  0.00    +0.000 A 
ATOM     15  C   UNL     1       7.113   2.310  24.699  0.00  0.00    +0.000 A 
ATOM     16  C   UNL     1       6.889   1.000  23.946  0.00  0.00    +0.000 A 
ENDBRANCH   9  11
BRANCH   1  17
ATOM     17  C   UNL     1       7.091  -3.315  22.035  0.00  0.00    +0.000 C 
ATOM     18  C   UNL     1       5.580  -3.098  21.819  0.00  0.00    +0.000 C 
BRANCH  17  22
ATOM     19  C   UNL     1       4.757  -6.037  24.199  0.00  0.00    +0.000 A 
ATOM     20  N   UNL     1       5.919  -6.114  23.547  0.00  0.00    +0.000 NA
ATOM     21  C   UNL     1       6.716  -5.032  23.737  0.00  0.00    +0.000 A 
ATOM     22  N   UNL     1       7.230  -4.633  22.581  0.00  0.00    +0.000 N 
ATOM     23  C   UNL     1       7.308  -5.766  21.581  0.00  0.00    +0.000 C 
ATOM     24  C   UNL     1       7.084  -4.469  25.080  0.00  0.00    +0.000 A 
ATOM     25  C   UNL     1       8.217  -5.106  25.866  0.00  0.00    +0.000 C 
ATOM     26  N   UNL     1       7.535  -5.766  26.926  0.00  0.00    +0.000 NA
ATOM     27  N   UNL     1       6.259  -5.411  27.078  0.00  0.00    +0.000 N 
ATOM     28  C   UNL     1       5.882  -5.219  28.424  0.00  0.00    +0.000 C 
ATOM     29  C   UNL     1       5.765  -4.744  25.975  0.00  0.00    +0.000 A 
ATOM     30  N   UNL     1       4.892  -5.465  25.353  0.00  0.00    +0.000 NA
ENDBRANCH  17  22
ENDBRANCH   1  17
TORSDOF 3
ENDMDL
MODEL 2
REMARK VINA RESULT:      -8.5      2.616      7.226
REMARK  Name = 
REMARK  6 active torsions:
REMARK  status: ('A' for Active; 'I' for Inactive)
REMARK    1  A    between atoms: N_5  and  C_6
REMARK    2  A    between atoms: N_5  and  C_10
REMARK    3  A    between atoms: C_10  and  N_12
REMARK    4  A    between atoms: C_10  and  C_42
REMARK    5  A    between atoms: C_26  and  C_28
REMARK    6  A    between atoms: N_50  and  C_51
REMARK                            x       y       z     vdW  Elec       q    Type
REMARK                         _______ _______ _______ _____ _____    ______ ____
ROOT
ATOM      1  N   UNL     1       8.290  -0.938  24.733  0.00  0.00    +0.000 NA
ATOM      2  C   UNL     1       8.766  -1.950  25.600  0.00  0.00    +0.000 C 
ATOM      3  C   UNL     1       7.977  -2.753  26.333  0.00  0.00    +0.000 A 
ATOM      4  C   UNL     1       8.619  -4.137  26.510  0.00  0.00    +0.000 A 
ATOM      5  C   UNL     1       7.931  -5.404  26.818  0.00  0.00    +0.000 A 
ATOM      6  C   UNL     1       6.454  -5.085  26.755  0.00  0.00    +0.000 A 
ATOM      7  C   UNL     1       5.637  -3.950  26.426  0.00  0.00    +0.000 A 
ATOM      8  C   UNL     1       6.549  -2.988  25.869  0.00  0.00    +0.000 A 
ATOM      9  C   UNL     1       6.254  -2.215  24.621  0.00  0.00    +0.000 C 
ATOM     10  C   UNL     1       6.902  -0.860  24.847  0.00  0.00    +0.000 C 
ENDROOT
BRANCH   9  11
ATOM     11  C   UNL     1       6.485  -2.991  23.453  0.00  0.00    +0.000 A 
ATOM     12  C   UNL     1       5.133  -3.559  23.041  0.00  0.00    +0.000 A 
ATOM     13  C   UNL     1       4.817  -4.990  22.784  0.00  0.00    +0.000 A 
ATOM     14  C   UNL     1       6.103  -5.718  22.789  0.00  0.00    +0.000 A 
ATOM     15  C   UNL     1       7.488  -5.396  22.929  0.00  0.00    +0.000 A 
ATOM     16  C   UNL     1       7.583  -3.877  23.043  0.00  0.00    +0.000 A 
ENDBRANCH   9  11
BRANCH   1  17
ATOM     17  C   UNL     1       8.861   0.293  24.492  0.00  0.00    +0.000 C 
ATOM     18  C   UNL     1       8.155   1.320  25.400  0.00  0.00    +0.000 C 
BRANCH  17  22
ATOM     19  C   UNL     1       7.162   3.130  21.923  0.00  0.00    +0.000 A 
ATOM     20  N   UNL     1       8.389   2.631  22.082  0.00  0.00    +0.000 NA
ATOM     21  C   UNL     1       8.400   1.292  22.307  0.00  0.00    +0.000 A 
ATOM     22  N   UNL     1       9.228   1.002  23.301  0.00  0.00    +0.000 N 
ATOM     23  C   UNL     1      10.312   2.048  23.454  0.00  0.00    +0.000 C 
ATOM     24  C   UNL     1       7.698   0.278  21.451  0.00  0.00    +0.000 A 
ATOM     25  C   UNL     1       8.363  -0.203  20.173  0.00  0.00    +0.000 C 
ATOM     26  N   UNL     1       7.577   0.409  19.157  0.00  0.00    +0.000 NA
ATOM     27  N   UNL     1       6.419   0.921  19.577  0.00  0.00    +0.000 N 
ATOM     28  C   UNL     1       5.334   0.645  18.718  0.00  0.00    +0.000 C 
ATOM     29  C   UNL     1       6.375   1.063  20.950  0.00  0.00    +0.000 A 
ATOM     30  N   UNL     1       6.389   2.310  21.284  0.00  0.00    +0.000 NA
ENDBRANCH  17  22
ENDBRANCH   1  17
TORSDOF 3
ENDMDL
MODEL 3
REMARK VINA RESULT:      -8.2      1.710      3.115
REMARK  Name = 
REMARK  6 active torsions:
REMARK  status: ('A' for Active; 'I' for Inactive)
REMARK    1  A    between atoms: N_5  and  C_6
REMARK    2  A    between atoms: N_5  and  C_10
REMARK    3  A    between atoms: C_10  and  N_12
REMARK    4  A    between atoms: C_10  and  C_42
REMARK    5  A    between atoms: C_26  and  C_28
REMARK    6  A    between atoms: N_50  and  C_51
REMARK                            x       y       z     vdW  Elec       q    Type
REMARK                         _______ _______ _______ _____ _____    ______ ____
ROOT
ATOM      1  N   UNL     1       7.980  -2.022  24.472  0.00  0.00    +0.000 NA
ATOM      2  C   UNL     1       8.580  -0.857  25.007  0.00  0.00    +0.000 C 
ATOM      3  C   UNL     1       9.450  -0.079  24.342  0.00  0.00    +0.000 A 
ATOM      4  C   UNL     1       9.314   1.388  24.775  0.00  0.00    +0.000 A 
ATOM      5  C   UNL     1       9.713   2.583  24.009  0.00  0.00    +0.000 A 
ATOM      6  C   UNL     1      10.125   2.069  22.648  0.00  0.00    +0.000 A 
ATOM      7  C   UNL     1      10.148   0.805  21.966  0.00  0.00    +0.000 A 
ATOM      8  C   UNL     1       9.420  -0.092  22.823  0.00  0.00    +0.000 A 
ATOM      9  C   UNL     1       8.385  -1.045  22.311  0.00  0.00    +0.000 C 
ATOM     10  C   UNL     1       8.513  -2.266  23.206  0.00  0.00    +0.000 C 
ENDROOT
BRANCH   9  11
ATOM     11  C   UNL     1       7.145  -0.396  22.070  0.00  0.00    +0.000 A 
ATOM     12  C   UNL     1       6.646  -0.909  20.724  0.00  0.00    +0.000 A 
ATOM     13  C   UNL     1       6.228  -0.080  19.563  0.00  0.00    +0.000 A 
ATOM     14  C   UNL     1       6.179   1.320  20.034  0.00  0.00    +0.000 A 
ATOM     15  C   UNL     1       6.380   2.018  21.263  0.00  0.00    +0.000 A 
ATOM     16  C   UNL     1       6.662   0.966  22.333  0.00  0.00    +0.000 A 
ENDBRANCH   9  11
BRANCH   1  17
ATOM     17  C   UNL     1       7.677  -3.188  25.141  0.00  0.00    +0.000 C 
ATOM     18  C   UNL     1       8.401  -3.145  26.502  0.00  0.00    +0.000 C 
BRANCH  17  22
ATOM     19  C   UNL     1       6.434  -5.453  21.846  0.00  0.00    +0.000 A 
ATOM     20  N   UNL     1       7.148  -5.714  22.942  0.00  0.00    +0.000 NA
ATOM     21  C   UNL     1       6.651  -5.128  24.061  0.00  0.00    +0.000 A 
ATOM     22  N   UNL     1       7.629  -4.569  24.759  0.00  0.00    +0.000 N 
ATOM     23  C   UNL     1       8.962  -5.233  24.490  0.00  0.00    +0.000 C 
ATOM     24  C   UNL     1       5.224  -5.237  24.517  0.00  0.00    +0.000 A 
ATOM     25  C   UNL     1       4.784  -6.468  25.290  0.00  0.00    +0.000 C 
ATOM     26  N   UNL     1       3.973  -7.160  24.347  0.00  0.00    +0.000 NA
ATOM     27  N   UNL     1       3.623  -6.446  23.278  0.00  0.00    +0.000 N 
ATOM     28  C   UNL     1       2.271  -6.608  22.907  0.00  0.00    +0.000 C 
ATOM     29  C   UNL     1       4.392  -5.308  23.131  0.00  0.00    +0.000 A 
ATOM     30  N   UNL     1       5.165  -5.405  22.101  0.00  0.00    +0.000 NA
ENDBRANCH  17  22
ENDBRANCH   1  17
TORSDOF 3
ENDMDL
MODEL 4
REMARK VINA RESULT:      -8.2      1.684      3.526
REMARK  Name = 
REMARK  6 active torsions:
REMARK  status: ('A' for Active; 'I' for Inactive)
REMARK    1  A    between atoms: N_5  and  C_6
REMARK    2  A    between atoms: N_5  and  C_10
REMARK    3  A    between atoms: C_10  and  N_12
REMARK    4  A    between atoms: C_10  and  C_42
REMARK    5  A    between atoms: C_26  and  C_28
REMARK    6  A    between atoms: N_50  and  C_51
REMARK                            x       y       z     vdW  Elec       q    Type
REMARK                         _______ _______ _______ _____ _____    ______ ____
ROOT
ATOM      1  N   UNL     1       7.586  -2.060  24.599  0.00  0.00    +0.000 NA
ATOM      2  C   UNL     1       7.815  -1.860  23.217  0.00  0.00    +0.000 C 
ATOM      3  C   UNL     1       7.276  -0.862  22.496  0.00  0.00    +0.000 A 
ATOM      4  C   UNL     1       8.226  -0.424  21.371  0.00  0.00    +0.000 A 
ATOM      5  C   UNL     1       8.246   0.877  20.680  0.00  0.00    +0.000 A 
ATOM      6  C   UNL     1       7.253   1.743  21.423  0.00  0.00    +0.000 A 
ATOM      7  C   UNL     1       6.420   1.623  22.587  0.00  0.00    +0.000 A 
ATOM      8  C   UNL     1       6.841   0.402  23.219  0.00  0.00    +0.000 A 
ATOM      9  C   UNL     1       7.080   0.290  24.693  0.00  0.00    +0.000 C 
ATOM     10  C   UNL     1       6.652  -1.125  25.045  0.00  0.00    +0.000 C 
ENDROOT
BRANCH   9  11
ATOM     11  C   UNL     1       8.343   0.825  25.064  0.00  0.00    +0.000 A 
ATOM     12  C   UNL     1       8.136   2.322  25.256  0.00  0.00    +0.000 A 
ATOM     13  C   UNL     1       8.921   3.412  24.617  0.00  0.00    +0.000 A 
ATOM     14  C   UNL     1      10.069   2.770  23.942  0.00  0.00    +0.000 A 
ATOM     15  C   UNL     1      10.596   1.450  23.800  0.00  0.00    +0.000 A 
ATOM     16  C   UNL     1       9.718   0.526  24.641  0.00  0.00    +0.000 A 
ENDBRANCH   9  11
BRANCH   1  17
ATOM     17  C   UNL     1       7.472  -3.264  25.261  0.00  0.00    +0.000 C 
ATOM     18  C   UNL     1       8.404  -3.211  26.488  0.00  0.00    +0.000 C 
BRANCH  17  22
ATOM     19  C   UNL     1       6.231  -5.455  21.914  0.00  0.00    +0.000 A 
ATOM     20  N   UNL     1       6.970  -5.732  22.990  0.00  0.00    +0.000 NA
ATOM     21  C   UNL     1       6.476  -5.194  24.135  0.00  0.00    +0.000 A 
ATOM     22  N   UNL     1       7.452  -4.633  24.836  0.00  0.00    +0.000 N 
ATOM     23  C   UNL     1       8.796  -5.255  24.525  0.00  0.00    +0.000 C 
ATOM     24  C   UNL     1       5.060  -5.352  24.609  0.00  0.00    +0.000 A 
ATOM     25  C   UNL     1       4.662  -6.617  25.350  0.00  0.00    +0.000 C 
ATOM     26  N   UNL     1       3.854  -7.300  24.398  0.00  0.00    +0.000 NA
ATOM     27  N   UNL     1       3.469  -6.561  23.357  0.00  0.00    +0.000 N 
ATOM     28  C   UNL     1       2.116  -6.745  23.003  0.00  0.00    +0.000 C 
ATOM     29  C   UNL     1       4.208  -5.401  23.235  0.00  0.00    +0.000 A 
ATOM     30  N   UNL     1       4.966  -5.446  22.190  0.00  0.00    +0.000 NA
ENDBRANCH  17  22
ENDBRANCH   1  17
TORSDOF 3
ENDMDL
MODEL 5
REMARK VINA RESULT:      -7.6      1.674      2.656
REMARK  Name = 
REMARK  6 active torsions:
REMARK  status: ('A' for Active; 'I' for Inactive)
REMARK    1  A    between atoms: N_5  and  C_6
REMARK    2  A    between atoms: N_5  and  C_10
REMARK    3  A    between atoms: C_10  and  N_12
REMARK    4  A    between atoms: C_10  and  C_42
REMARK    5  A    between atoms: C_26  and  C_28
REMARK    6  A    between atoms: N_50  and  C_51
REMARK                            x       y       z     vdW  Elec       q    Type
REMARK                         _______ _______ _______ _____ _____    ______ ____
ROOT
ATOM      1  N   UNL     1       8.512  -2.139  23.850  0.00  0.00    +0.000 NA
ATOM      2  C   UNL     1       8.973  -1.024  24.591  0.00  0.00    +0.000 C 
ATOM      3  C   UNL     1       9.699  -0.018  24.073  0.00  0.00    +0.000 A 
ATOM      4  C   UNL     1       9.386   1.305  24.787  0.00  0.00    +0.000 A 
ATOM      5  C   UNL     1       9.585   2.668  24.262  0.00  0.00    +0.000 A 
ATOM      6  C   UNL     1       9.998   2.486  22.818  0.00  0.00    +0.000 A 
ATOM      7  C   UNL     1      10.160   1.391  21.902  0.00  0.00    +0.000 A 
ATOM      8  C   UNL     1       9.600   0.255  22.582  0.00  0.00    +0.000 A 
ATOM      9  C   UNL     1       8.681  -0.721  21.914  0.00  0.00    +0.000 C 
ATOM     10  C   UNL     1       9.013  -2.059  22.551  0.00  0.00    +0.000 C 
ENDROOT
BRANCH   9  11
ATOM     11  C   UNL     1       7.354  -0.220  21.828  0.00  0.00    +0.000 A 
ATOM     12  C   UNL     1       6.887  -0.482  20.401  0.00  0.00    +0.000 A 
ATOM     13  C   UNL     1       6.318   0.518  19.460  0.00  0.00    +0.000 A 
ATOM     14  C   UNL     1       6.089   1.754  20.238  0.00  0.00    +0.000 A 
ATOM     15  C   UNL     1       6.232   2.179  21.595  0.00  0.00    +0.000 A 
ATOM     16  C   UNL     1       6.694   0.964  22.396  0.00  0.00    +0.000 A 
ENDBRANCH   9  11
BRANCH   1  17
ATOM     17  C   UNL     1       8.400  -3.442  24.285  0.00  0.00    +0.000 C 
ATOM     18  C   UNL     1       7.695  -4.245  23.173  0.00  0.00    +0.000 C 
BRANCH  17  22
ATOM     19  C   UNL     1       5.570  -6.230  25.610  0.00  0.00    +0.000 A 
ATOM     20  N   UNL     1       6.640  -5.652  26.159  0.00  0.00    +0.000 NA
ATOM     21  C   UNL     1       6.753  -4.333  25.859  0.00  0.00    +0.000 A 
ATOM     22  N   UNL     1       8.003  -4.045  25.523  0.00  0.00    +0.000 N 
ATOM     23  C   UNL     1       8.988  -5.015  26.139  0.00  0.00    +0.000 C 
ATOM     24  C   UNL     1       5.656  -3.322  26.035  0.00  0.00    +0.000 A 
ATOM     25  C   UNL     1       5.421  -2.713  27.406  0.00  0.00    +0.000 C 
ATOM     26  N   UNL     1       4.199  -3.317  27.815  0.00  0.00    +0.000 NA
ATOM     27  N   UNL     1       3.529  -3.939  26.844  0.00  0.00    +0.000 N 
ATOM     28  C   UNL     1       2.140  -3.691  26.866  0.00  0.00    +0.000 C 
ATOM     29  C   UNL     1       4.313  -4.170  25.731  0.00  0.00    +0.000 A 
ATOM     30  N   UNL     1       4.551  -5.431  25.589  0.00  0.00    +0.000 NA
ENDBRANCH  17  22
ENDBRANCH   1  17
TORSDOF 3
ENDMDL
MODEL 6
REMARK VINA RESULT:      -7.5      2.875      7.187
REMARK  Name = 
REMARK  6 active torsions:
REMARK  status: ('A' for Active; 'I' for Inactive)
REMARK    1  A    between atoms: N_5  and  C_6
REMARK    2  A    between atoms: N_5  and  C_10
REMARK    3  A    between atoms: C_10  and  N_12
REMARK    4  A    between atoms: C_10  and  C_42
REMARK    5  A    between atoms: C_26  and  C_28
REMARK    6  A    between atoms: N_50  and  C_51
REMARK                            x       y       z     vdW  Elec       q    Type
REMARK                         _______ _______ _______ _____ _____    ______ ____
ROOT
ATOM      1  N   UNL     1       8.391  -0.594  24.834  0.00  0.00    +0.000 NA
ATOM      2  C   UNL     1       8.638  -1.836  24.203  0.00  0.00    +0.000 C 
ATOM      3  C   UNL     1       8.671  -3.018  24.842  0.00  0.00    +0.000 A 
ATOM      4  C   UNL     1       8.178  -4.148  23.926  0.00  0.00    +0.000 A 
ATOM      5  C   UNL     1       7.627  -5.451  24.340  0.00  0.00    +0.000 A 
ATOM      6  C   UNL     1       7.495  -5.373  25.845  0.00  0.00    +0.000 A 
ATOM      7  C   UNL     1       7.698  -4.383  26.867  0.00  0.00    +0.000 A 
ATOM      8  C   UNL     1       7.916  -3.154  26.153  0.00  0.00    +0.000 A 
ATOM      9  C   UNL     1       7.257  -1.865  26.533  0.00  0.00    +0.000 C 
ATOM     10  C   UNL     1       8.288  -0.797  26.210  0.00  0.00    +0.000 C 
ENDROOT
BRANCH   9  11
ATOM     11  C   UNL     1       5.915  -1.802  26.069  0.00  0.00    +0.000 A 
ATOM     12  C   UNL     1       5.028  -1.936  27.301  0.00  0.00    +0.000 A 
ATOM     13  C   UNL     1       3.920  -2.909  27.490  0.00  0.00    +0.000 A 
ATOM     14  C   UNL     1       3.703  -3.567  26.184  0.00  0.00    +0.000 A 
ATOM     15  C   UNL     1       4.235  -3.471  24.862  0.00  0.00    +0.000 A 
ATOM     16  C   UNL     1       5.247  -2.328  24.871  0.00  0.00    +0.000 A 
ENDBRANCH   9  11
BRANCH   1  17
ATOM     17  C   UNL     1       8.957   0.625  24.530  0.00  0.00    +0.000 C 
ATOM     18  C   UNL     1       8.303   1.683  25.442  0.00  0.00    +0.000 C 
BRANCH  17  22
ATOM     19  C   UNL     1       7.106   3.321  21.914  0.00  0.00    +0.000 A 
ATOM     20  N   UNL     1       8.349   2.858  22.051  0.00  0.00    +0.000 NA
ATOM     21  C   UNL     1       8.402   1.530  22.326  0.00  0.00    +0.000 A 
ATOM     22  N   UNL     1       9.268   1.297  23.302  0.00  0.00    +0.000 N 
ATOM     23  C   UNL     1      10.328   2.375  23.381  0.00  0.00    +0.000 C 
ATOM     24  C   UNL     1       7.699   0.467  21.530  0.00  0.00    +0.000 A 
ATOM     25  C   UNL     1       8.337  -0.046  20.251  0.00  0.00    +0.000 C 
ATOM     26  N   UNL     1       7.503   0.508  19.239  0.00  0.00    +0.000 NA
ATOM     27  N   UNL     1       6.347   1.007  19.676  0.00  0.00    +0.000 N 
ATOM     28  C   UNL     1       5.243   0.673  18.863  0.00  0.00    +0.000 C 
ATOM     29  C   UNL     1       6.342   1.200  21.043  0.00  0.00    +0.000 A 
ATOM     30  N   UNL     1       6.335   2.459  21.331  0.00  0.00    +0.000 NA
ENDBRANCH  17  22
ENDBRANCH   1  17
TORSDOF 3
ENDMDL
MODEL 7
REMARK VINA RESULT:      -7.5      1.092      2.429
REMARK  Name = 
REMARK  6 active torsions:
REMARK  status: ('A' for Active; 'I' for Inactive)
REMARK    1  A    between atoms: N_5  and  C_6
REMARK    2  A    between atoms: N_5  and  C_10
REMARK    3  A    between atoms: C_10  and  N_12
REMARK    4  A    between atoms: C_10  and  C_42
REMARK    5  A    between atoms: C_26  and  C_28
REMARK    6  A    between atoms: N_50  and  C_51
REMARK                            x       y       z     vdW  Elec       q    Type
REMARK                         _______ _______ _______ _____ _____    ______ ____
ROOT
ATOM      1  N   UNL     1       7.349  -2.390  22.912  0.00  0.00    +0.000 NA
ATOM      2  C   UNL     1       6.443  -1.536  23.586  0.00  0.00    +0.000 C 
ATOM      3  C   UNL     1       6.782  -0.720  24.600  0.00  0.00    +0.000 A 
ATOM      4  C   UNL     1       5.920   0.550  24.591  0.00  0.00    +0.000 A 
ATOM      5  C   UNL     1       6.251   1.854  25.195  0.00  0.00    +0.000 A 
ATOM      6  C   UNL     1       7.679   1.724  25.674  0.00  0.00    +0.000 A 
ATOM      7  C   UNL     1       8.720   0.736  25.619  0.00  0.00    +0.000 A 
ATOM      8  C   UNL     1       8.228  -0.268  24.715  0.00  0.00    +0.000 A 
ATOM      9  C   UNL     1       9.069  -0.870  23.632  0.00  0.00    +0.000 C 
ATOM     10  C   UNL     1       8.595  -2.310  23.533  0.00  0.00    +0.000 C 
ENDROOT
BRANCH   9  11
ATOM     11  C   UNL     1       9.165  -0.014  22.502  0.00  0.00    +0.000 A 
ATOM     12  C   UNL     1      10.289   0.970  22.802  0.00  0.00    +0.000 A 
ATOM     13  C   UNL     1      10.207   2.453  22.736  0.00  0.00    +0.000 A 
ATOM     14  C   UNL     1       8.905   2.780  22.116  0.00  0.00    +0.000 A 
ATOM     15  C   UNL     1       7.800   2.065  21.563  0.00  0.00    +0.000 A 
ATOM     16  C   UNL     1       8.160   0.581  21.611  0.00  0.00    +0.000 A 
ENDBRANCH   9  11
BRANCH   1  17
ATOM     17  C   UNL     1       7.095  -3.650  22.416  0.00  0.00    +0.000 C 
ATOM     18  C   UNL     1       5.873  -3.546  21.481  0.00  0.00    +0.000 C 
BRANCH  17  22
ATOM     19  C   UNL     1       4.366  -5.934  24.623  0.00  0.00    +0.000 A 
ATOM     20  N   UNL     1       5.512  -6.200  23.993  0.00  0.00    +0.000 NA
ATOM     21  C   UNL     1       6.455  -5.238  24.163  0.00  0.00    +0.000 A 
ATOM     22  N   UNL     1       7.035  -4.956  23.004  0.00  0.00    +0.000 N 
ATOM     23  C   UNL     1       6.961  -6.120  22.040  0.00  0.00    +0.000 C 
ATOM     24  C   UNL     1       6.884  -4.691  25.494  0.00  0.00    +0.000 A 
ATOM     25  C   UNL     1       7.904  -5.458  26.318  0.00  0.00    +0.000 C 
ATOM     26  N   UNL     1       7.120  -5.978  27.386  0.00  0.00    +0.000 NA
ATOM     27  N   UNL     1       5.907  -5.437  27.506  0.00  0.00    +0.000 N 
ATOM     28  C   UNL     1       5.546  -5.149  28.839  0.00  0.00    +0.000 C 
ATOM     29  C   UNL     1       5.528  -4.743  26.375  0.00  0.00    +0.000 A 
ATOM     30  N   UNL     1       4.568  -5.351  25.761  0.00  0.00    +0.000 NA
ENDBRANCH  17  22
ENDBRANCH   1  17
TORSDOF 3
ENDMDL
MODEL 8
REMARK VINA RESULT:      -7.3      2.271      7.671
REMARK  Name = 
REMARK  6 active torsions:
REMARK  status: ('A' for Active; 'I' for Inactive)
REMARK    1  A    between atoms: N_5  and  C_6
REMARK    2  A    between atoms: N_5  and  C_10
REMARK    3  A    between atoms: C_10  and  N_12
REMARK    4  A    between atoms: C_10  and  C_42
REMARK    5  A    between atoms: C_26  and  C_28
REMARK    6  A    between atoms: N_50  and  C_51
REMARK                            x       y       z     vdW  Elec       q    Type
REMARK                         _______ _______ _______ _____ _____    ______ ____
ROOT
ATOM      1  N   UNL     1       6.901  -4.337  25.228  0.00  0.00    +0.000 NA
ATOM      2  C   UNL     1       6.136  -4.633  24.075  0.00  0.00    +0.000 C 
ATOM      3  C   UNL     1       5.364  -5.724  23.936  0.00  0.00    +0.000 A 
ATOM      4  C   UNL     1       4.142  -5.421  23.057  0.00  0.00    +0.000 A 
ATOM      5  C   UNL     1       2.860  -6.148  23.035  0.00  0.00    +0.000 A 
ATOM      6  C   UNL     1       2.941  -7.141  24.172  0.00  0.00    +0.000 A 
ATOM      7  C   UNL     1       3.868  -7.464  25.221  0.00  0.00    +0.000 A 
ATOM      8  C   UNL     1       4.843  -6.408  25.190  0.00  0.00    +0.000 A 
ATOM      9  C   UNL     1       5.337  -5.720  26.425  0.00  0.00    +0.000 C 
ATOM     10  C   UNL     1       6.792  -5.397  26.129  0.00  0.00    +0.000 C 
ENDROOT
BRANCH   9  11
ATOM     11  C   UNL     1       4.413  -4.745  26.889  0.00  0.00    +0.000 A 
ATOM     12  C   UNL     1       3.771  -5.325  28.143  0.00  0.00    +0.000 A 
ATOM     13  C   UNL     1       2.314  -5.460  28.408  0.00  0.00    +0.000 A 
ATOM     14  C   UNL     1       1.615  -4.729  27.329  0.00  0.00    +0.000 A 
ATOM     15  C   UNL     1       1.977  -3.942  26.194  0.00  0.00    +0.000 A 
ATOM     16  C   UNL     1       3.499  -3.825  26.198  0.00  0.00    +0.000 A 
ENDBRANCH   9  11
BRANCH   1  17
ATOM     17  C   UNL     1       8.142  -3.741  25.277  0.00  0.00    +0.000 C 
ATOM     18  C   UNL     1       8.893  -4.325  26.491  0.00  0.00    +0.000 C 
BRANCH  17  22
ATOM     19  C   UNL     1       6.629  -0.073  23.936  0.00  0.00    +0.000 A 
ATOM     20  N   UNL     1       7.719  -0.443  24.611  0.00  0.00    +0.000 NA
ATOM     21  C   UNL     1       8.286  -1.582  24.136  0.00  0.00    +0.000 A 
ATOM     22  N   UNL     1       8.601  -2.389  25.140  0.00  0.00    +0.000 N 
ATOM     23  C   UNL     1       8.825  -1.626  26.427  0.00  0.00    +0.000 C 
ATOM     24  C   UNL     1       8.646  -1.818  22.697  0.00  0.00    +0.000 A 
ATOM     25  C   UNL     1       9.953  -1.262  22.159  0.00  0.00    +0.000 C 
ATOM     26  N   UNL     1       9.520  -0.198  21.318  0.00  0.00    +0.000 NA
ATOM     27  N   UNL     1       8.216  -0.199  21.037  0.00  0.00    +0.000 N 
ATOM     28  C   UNL     1       7.929   0.078  19.684  0.00  0.00    +0.000 C 
ATOM     29  C   UNL     1       7.498  -1.017  21.888  0.00  0.00    +0.000 A 
ATOM     30  N   UNL     1       6.744  -0.318  22.669  0.00  0.00    +0.000 NA
ENDBRANCH  17  22
ENDBRANCH   1  17
TORSDOF 3
ENDMDL
MODEL 9
REMARK VINA RESULT:      -7.3      2.574      7.217
REMARK  Name = 
REMARK  6 active torsions:
REMARK  status: ('A' for Active; 'I' for Inactive)
REMARK    1  A    between atoms: N_5  and  C_6
REMARK    2  A    between atoms: N_5  and  C_10
REMARK    3  A    between atoms: C_10  and  N_12
REMARK    4  A    between atoms: C_10  and  C_42
REMARK    5  A    between atoms: C_26  and  C_28
REMARK    6  A    between atoms: N_50  and  C_51
REMARK                            x       y       z     vdW  Elec       q    Type
REMARK                         _______ _______ _______ _____ _____    ______ ____
ROOT
ATOM      1  N   UNL     1       6.925  -1.693  22.983  0.00  0.00    +0.000 NA
ATOM      2  C   UNL     1       7.995  -2.533  23.375  0.00  0.00    +0.000 C 
ATOM      3  C   UNL     1       8.162  -3.017  24.618  0.00  0.00    +0.000 A 
ATOM      4  C   UNL     1       8.829  -4.400  24.581  0.00  0.00    +0.000 A 
ATOM      5  C   UNL     1       8.770  -5.444  25.620  0.00  0.00    +0.000 A 
ATOM      6  C   UNL     1       7.784  -4.934  26.647  0.00  0.00    +0.000 A 
ATOM      7  C   UNL     1       6.914  -3.800  26.796  0.00  0.00    +0.000 A 
ATOM      8  C   UNL     1       6.945  -3.140  25.519  0.00  0.00    +0.000 A 
ATOM      9  C   UNL     1       5.711  -2.646  24.829  0.00  0.00    +0.000 C 
ATOM     10  C   UNL     1       6.155  -1.386  24.105  0.00  0.00    +0.000 C 
ENDROOT
BRANCH   9  11
ATOM     11  C   UNL     1       5.013  -3.699  24.179  0.00  0.00    +0.000 A 
ATOM     12  C   UNL     1       3.997  -4.227  25.185  0.00  0.00    +0.000 A 
ATOM     13  C   UNL     1       3.825  -5.642  25.607  0.00  0.00    +0.000 A 
ATOM     14  C   UNL     1       4.668  -6.460  24.710  0.00  0.00    +0.000 A 
ATOM     15  C   UNL     1       5.518  -6.240  23.583  0.00  0.00    +0.000 A 
ATOM     16  C   UNL     1       5.436  -4.753  23.247  0.00  0.00    +0.000 A 
ENDBRANCH   9  11
BRANCH   1  17
ATOM     17  C   UNL     1       6.968  -0.651  22.082  0.00  0.00    +0.000 C 
ATOM     18  C   UNL     1       6.380  -1.161  20.752  0.00  0.00    +0.000 C 
BRANCH  17  22
ATOM     19  C   UNL     1      10.258   1.209  23.887  0.00  0.00    +0.000 A 
ATOM     20  N   UNL     1       9.799   1.132  22.637  0.00  0.00    +0.000 NA
ATOM     21  C   UNL     1       8.448   1.240  22.552  0.00  0.00    +0.000 A 
ATOM     22  N   UNL     1       7.966   0.317  21.731  0.00  0.00    +0.000 N 
ATOM     23  C   UNL     1       8.997  -0.126  20.715  0.00  0.00    +0.000 C 
ATOM     24  C   UNL     1       7.640   2.343  23.173  0.00  0.00    +0.000 A 
ATOM     25  C   UNL     1       7.523   3.674  22.451  0.00  0.00    +0.000 C 
ATOM     26  N   UNL     1       8.325   4.538  23.249  0.00  0.00    +0.000 NA
ATOM     27  N   UNL     1       8.658   4.049  24.444  0.00  0.00    +0.000 N 
ATOM     28  C   UNL     1       8.546   4.989  25.491  0.00  0.00    +0.000 C 
ATOM     29  C   UNL     1       8.455   2.686  24.528  0.00  0.00    +0.000 A 
ATOM     30  N   UNL     1       9.581   2.057  24.595  0.00  0.00    +0.000 NA
ENDBRANCH  17  22
ENDBRANCH   1  17
TORSDOF 3
ENDMDL
