MODEL 1
REMARK VINA RESULT:      -8.8      0.000      0.000
REMARK  Name = 
REMARK  6 active torsions:
REMARK  status: ('A' for Active; 'I' for Inactive)
REMARK    1  A    between atoms: O_2  and  C_3
REMARK    2  A    between atoms: C_12  and  N_13
REMARK    3  A    between atoms: C_15  and  C_17
REMARK    4  A    between atoms: C_26  and  C_28
REMARK    5  A    between atoms: C_28  and  N_31
REMARK    6  A    between atoms: C_45  and  C_47
REMARK                            x       y       z     vdW  Elec       q    Type
REMARK                         _______ _______ _______ _____ _____    ______ ____
ROOT
ATOM      1  C   UNL     1      10.080   0.732  22.500  0.00  0.00    +0.000 C 
ATOM      2  C   UNL     1      10.342   1.395  23.799  0.00  0.00    +0.000 C 
ATOM      3  C   UNL     1       9.491   0.967  24.967  0.00  0.00    +0.000 C 
ATOM      4  N   UNL     1       8.862  -0.353  24.648  0.00  0.00    +0.000 N 
ATOM      5  C   UNL     1       7.506  -0.381  24.487  0.00  0.00    +0.000 C 
ATOM      6  O   UNL     1       6.950   0.323  25.488  0.00  0.00    +0.000 OA
ATOM      7  C   UNL     1       9.751  -1.239  23.973  0.00  0.00    +0.000 C 
ATOM      8  C   UNL     1       9.889  -0.750  22.518  0.00  0.00    +0.000 C 
ENDROOT
BRANCH   1  11
ATOM      9  N   UNL     1       8.463   0.934  20.690  0.00  0.00    +0.000 N 
ATOM     10  H   UNL     1       8.902   0.651  20.008  0.00  0.00    +0.000 HD
ATOM     11  C   UNL     1       8.872   1.373  21.815  0.00  0.00    +0.000 C 
ATOM     12  O   UNL     1       8.542   2.494  22.270  0.00  0.00    +0.000 OA
BRANCH   9  18
ATOM     13  C   UNL     1       6.286   1.734  20.079  0.00  0.00    +0.000 A 
ATOM     14  C   UNL     1       5.566   1.359  18.810  0.00  0.00    +0.000 A 
ATOM     15  C   UNL     1       5.316   0.003  18.254  0.00  0.00    +0.000 A 
ATOM     16  C   UNL     1       5.955  -0.926  19.242  0.00  0.00    +0.000 A 
ATOM     17  C   UNL     1       6.849  -0.876  20.361  0.00  0.00    +0.000 A 
ATOM     18  C   UNL     1       7.127   0.630  20.564  0.00  0.00    +0.000 A 
BRANCH  13  20
ATOM     19  H   UNL     1       4.789   2.885  20.135  0.00  0.00    +0.000 HD
ATOM     20  O   UNL     1       5.212   2.326  20.773  0.00  0.00    +0.000 OA
ENDBRANCH  13  20
ENDBRANCH   9  18
ENDBRANCH   1  11
BRANCH   5  21
ATOM     21  C   UNL     1       6.667  -1.389  23.870  0.00  0.00    +0.000 C 
BRANCH  21  22
ATOM     22  N   UNL     1       6.153  -2.608  24.156  0.00  0.00    +0.000 NA
ATOM     23  C   UNL     1       7.024  -3.574  24.671  0.00  0.00    +0.000 C 
ATOM     24  C   UNL     1       6.850  -4.882  24.411  0.00  0.00    +0.000 A 
ATOM     25  C   UNL     1       7.557  -4.984  22.990  0.00  0.00    +0.000 A 
ATOM     26  C   UNL     1       7.080  -5.766  21.832  0.00  0.00    +0.000 A 
ATOM     27  C   UNL     1       5.829  -6.462  22.323  0.00  0.00    +0.000 A 
ATOM     28  C   UNL     1       5.091  -6.498  23.520  0.00  0.00    +0.000 A 
ATOM     29  C   UNL     1       5.480  -5.289  24.336  0.00  0.00    +0.000 A 
ATOM     30  C   UNL     1       4.305  -4.207  24.256  0.00  0.00    +0.000 C 
ATOM     31  C   UNL     1       4.845  -2.874  24.581  0.00  0.00    +0.000 C 
BRANCH  30  32
ATOM     32  C   UNL     1       3.265  -4.943  24.673  0.00  0.00    +0.000 A 
ATOM     33  C   UNL     1       3.439  -5.363  26.159  0.00  0.00    +0.000 A 
ATOM     34  C   UNL     1       2.963  -6.634  26.688  0.00  0.00    +0.000 A 
ATOM     35  C   UNL     1       2.167  -7.328  25.637  0.00  0.00    +0.000 A 
ATOM     36  C   UNL     1       1.730  -6.970  24.324  0.00  0.00    +0.000 A 
ATOM     37  C   UNL     1       2.032  -5.498  24.099  0.00  0.00    +0.000 A 
ENDBRANCH  30  32
ENDBRANCH  21  22
ENDBRANCH   5  21
TORSDOF 6
ENDMDL
MODEL 2
REMARK VINA RESULT:      -8.7      2.629      7.686
REMARK  Name = 
REMARK  6 active torsions:
REMARK  status: ('A' for Active; 'I' for Inactive)
REMARK    1  A    between atoms: O_2  and  C_3
REMARK    2  A    between atoms: C_12  and  N_13
REMARK    3  A    between atoms: C_15  and  C_17
REMARK    4  A    between atoms: C_26  and  C_28
REMARK    5  A    between atoms: C_28  and  N_31
REMARK    6  A    between atoms: C_45  and  C_47
REMARK                            x       y       z     vdW  Elec       q    Type
REMARK                         _______ _______ _______ _____ _____    ______ ____
ROOT
ATOM      1  C   UNL     1       6.128  -5.337  24.814  0.00  0.00    +0.000 C 
ATOM      2  C   UNL     1       5.200  -5.948  23.834  0.00  0.00    +0.000 C 
ATOM      3  C   UNL     1       5.286  -5.455  22.413  0.00  0.00    +0.000 C 
ATOM      4  N   UNL     1       6.599  -4.765  22.220  0.00  0.00    +0.000 N 
ATOM      5  C   UNL     1       6.575  -3.417  21.997  0.00  0.00    +0.000 C 
ATOM      6  O   UNL     1       5.621  -3.160  21.086  0.00  0.00    +0.000 OA
ATOM      7  C   UNL     1       7.675  -5.432  22.874  0.00  0.00    +0.000 C 
ATOM      8  C   UNL     1       7.550  -5.160  24.385  0.00  0.00    +0.000 C 
ENDROOT
BRANCH   1  11
ATOM      9  N   UNL     1       6.212  -3.314  26.168  0.00  0.00    +0.000 N 
ATOM     10  H   UNL     1       6.628  -3.572  26.874  0.00  0.00    +0.000 HD
ATOM     11  C   UNL     1       5.587  -3.985  25.282  0.00  0.00    +0.000 C 
ATOM     12  O   UNL     1       4.392  -3.761  24.975  0.00  0.00    +0.000 OA
BRANCH   9  18
ATOM     13  C   UNL     1       5.452  -1.044  26.318  0.00  0.00    +0.000 A 
ATOM     14  C   UNL     1       5.998  -0.025  27.285  0.00  0.00    +0.000 A 
ATOM     15  C   UNL     1       7.416   0.343  27.538  0.00  0.00    +0.000 A 
ATOM     16  C   UNL     1       8.199  -0.539  26.614  0.00  0.00    +0.000 A 
ATOM     17  C   UNL     1       8.002  -1.691  25.784  0.00  0.00    +0.000 A 
ATOM     18  C   UNL     1       6.492  -1.994  25.898  0.00  0.00    +0.000 A 
BRANCH  13  20
ATOM     19  H   UNL     1       4.419  -0.728  24.768  0.00  0.00    +0.000 HD
ATOM     20  O   UNL     1       4.729  -0.178  25.474  0.00  0.00    +0.000 OA
ENDBRANCH  13  20
ENDBRANCH   9  18
ENDBRANCH   1  11
BRANCH   5  21
ATOM     21  C   UNL     1       7.641  -2.441  22.102  0.00  0.00    +0.000 C 
BRANCH  21  22
ATOM     22  N   UNL     1       7.796  -1.109  22.285  0.00  0.00    +0.000 NA
ATOM     23  C   UNL     1       8.804  -0.469  21.558  0.00  0.00    +0.000 C 
ATOM     24  C   UNL     1       9.458   0.595  22.057  0.00  0.00    +0.000 A 
ATOM     25  C   UNL     1      10.550  -0.139  22.951  0.00  0.00    +0.000 A 
ATOM     26  C   UNL     1      11.001   0.276  24.295  0.00  0.00    +0.000 A 
ATOM     27  C   UNL     1      10.237   1.550  24.583  0.00  0.00    +0.000 A 
ATOM     28  C   UNL     1       9.272   2.328  23.919  0.00  0.00    +0.000 A 
ATOM     29  C   UNL     1       8.645   1.466  22.849  0.00  0.00    +0.000 A 
ATOM     30  C   UNL     1       7.188   1.015  23.333  0.00  0.00    +0.000 C 
ATOM     31  C   UNL     1       6.781  -0.195  22.595  0.00  0.00    +0.000 C 
BRANCH  30  32
ATOM     32  C   UNL     1       6.634   2.209  23.588  0.00  0.00    +0.000 A 
ATOM     33  C   UNL     1       6.556   3.075  22.300  0.00  0.00    +0.000 A 
ATOM     34  C   UNL     1       6.702   4.525  22.306  0.00  0.00    +0.000 A 
ATOM     35  C   UNL     1       6.753   5.001  23.717  0.00  0.00    +0.000 A 
ATOM     36  C   UNL     1       6.604   4.361  24.987  0.00  0.00    +0.000 A 
ATOM     37  C   UNL     1       6.123   2.938  24.758  0.00  0.00    +0.000 A 
ENDBRANCH  30  32
ENDBRANCH  21  22
ENDBRANCH   5  21
TORSDOF 6
ENDMDL
MODEL 3
REMARK VINA RESULT:      -8.7      0.936      1.327
REMARK  Name = 
REMARK  6 active torsions:
REMARK  status: ('A' for Active; 'I' for Inactive)
REMARK    1  A    between atoms: O_2  and  C_3
REMARK    2  A    between atoms: C_12  and  N_13
REMARK    3  A    between atoms: C_15  and  C_17
REMARK    4  A    between atoms: C_26  and  C_28
REMARK    5  A    between atoms: C_28  and  N_31
REMARK    6  A    between atoms: C_45  and  C_47
REMARK                            x       y       z     vdW  Elec       q    Type
REMARK                         _______ _______ _______ _____ _____    ______ ____
ROOT
ATOM      1  C   UNL     1      10.111   1.144  22.432  0.00  0.00    +0.000 C 
ATOM      2  C   UNL     1      10.440   1.801  23.719  0.00  0.00    +0.000 C 
ATOM      3  C   UNL     1       9.745   1.277  24.949  0.00  0.00    +0.000 C 
ATOM      4  N   UNL     1       9.202  -0.085  24.654  0.00  0.00    +0.000 N 
ATOM      5  C   UNL     1       7.844  -0.228  24.622  0.00  0.00    +0.000 C 
ATOM      6  O   UNL     1       7.330   0.405  25.690  0.00  0.00    +0.000 OA
ATOM      7  C   UNL     1      10.093  -0.877  23.874  0.00  0.00    +0.000 C 
ATOM      8  C   UNL     1      10.049  -0.350  22.427  0.00  0.00    +0.000 C 
ENDROOT
BRANCH   1  11
ATOM      9  N   UNL     1       8.360   1.304  20.747  0.00  0.00    +0.000 N 
ATOM     10  H   UNL     1       8.779   1.136  20.017  0.00  0.00    +0.000 HD
ATOM     11  C   UNL     1       8.793   1.691  21.883  0.00  0.00    +0.000 C 
ATOM     12  O   UNL     1       8.368   2.720  22.459  0.00  0.00    +0.000 OA
BRANCH   9  18
ATOM     13  C   UNL     1       6.087   1.852  20.210  0.00  0.00    +0.000 A 
ATOM     14  C   UNL     1       5.369   1.385  18.970  0.00  0.00    +0.000 A 
ATOM     15  C   UNL     1       5.251   0.004  18.434  0.00  0.00    +0.000 A 
ATOM     16  C   UNL     1       6.023  -0.838  19.405  0.00  0.00    +0.000 A 
ATOM     17  C   UNL     1       6.945  -0.676  20.491  0.00  0.00    +0.000 A 
ATOM     18  C   UNL     1       7.062   0.853  20.672  0.00  0.00    +0.000 A 
BRANCH  13  20
ATOM     19  H   UNL     1       4.224   1.960  20.501  0.00  0.00    +0.000 HD
ATOM     20  O   UNL     1       4.979   2.330  20.937  0.00  0.00    +0.000 OA
ENDBRANCH  13  20
ENDBRANCH   9  18
ENDBRANCH   1  11
BRANCH   5  21
ATOM     21  C   UNL     1       7.038  -1.293  24.058  0.00  0.00    +0.000 C 
BRANCH  21  22
ATOM     22  N   UNL     1       6.750  -2.594  24.295  0.00  0.00    +0.000 NA
ATOM     23  C   UNL     1       7.745  -3.538  24.019  0.00  0.00    +0.000 C 
ATOM     24  C   UNL     1       7.436  -4.781  23.609  0.00  0.00    +0.000 A 
ATOM     25  C   UNL     1       7.231  -4.522  22.053  0.00  0.00    +0.000 A 
ATOM     26  C   UNL     1       6.178  -5.111  21.201  0.00  0.00    +0.000 A 
ATOM     27  C   UNL     1       5.401  -6.026  22.123  0.00  0.00    +0.000 A 
ATOM     28  C   UNL     1       5.453  -6.379  23.484  0.00  0.00    +0.000 A 
ATOM     29  C   UNL     1       6.249  -5.317  24.203  0.00  0.00    +0.000 A 
ATOM     30  C   UNL     1       5.245  -4.379  25.023  0.00  0.00    +0.000 C 
ATOM     31  C   UNL     1       5.896  -3.083  25.291  0.00  0.00    +0.000 C 
BRANCH  30  32
ATOM     32  C   UNL     1       4.602  -5.295  25.760  0.00  0.00    +0.000 A 
ATOM     33  C   UNL     1       3.065  -5.075  25.707  0.00  0.00    +0.000 A 
ATOM     34  C   UNL     1       2.181  -5.351  26.832  0.00  0.00    +0.000 A 
ATOM     35  C   UNL     1       2.965  -6.017  27.911  0.00  0.00    +0.000 A 
ATOM     36  C   UNL     1       4.311  -6.490  28.013  0.00  0.00    +0.000 A 
ATOM     37  C   UNL     1       4.954  -6.420  26.638  0.00  0.00    +0.000 A 
ENDBRANCH  30  32
ENDBRANCH  21  22
ENDBRANCH   5  21
TORSDOF 6
ENDMDL
MODEL 4
REMARK VINA RESULT:      -8.5      2.600      7.349
REMARK  Name = 
REMARK  6 active torsions:
REMARK  status: ('A' for Active; 'I' for Inactive)
REMARK    1  A    between atoms: O_2  and  C_3
REMARK    2  A    between atoms: C_12  and  N_13
REMARK    3  A    between atoms: C_15  and  C_17
REMARK    4  A    between atoms: C_26  and  C_28
REMARK    5  A    between atoms: C_28  and  N_31
REMARK    6  A    between atoms: C_45  and  C_47
REMARK                            x       y       z     vdW  Elec       q    Type
REMARK                         _______ _______ _______ _____ _____    ______ ____
ROOT
ATOM      1  C   UNL     1       5.950  -4.299  27.300  0.00  0.00    +0.000 C 
ATOM      2  C   UNL     1       5.224  -5.439  26.694  0.00  0.00    +0.000 C 
ATOM      3  C   UNL     1       5.600  -5.817  25.286  0.00  0.00    +0.000 C 
ATOM      4  N   UNL     1       6.938  -5.227  24.968  0.00  0.00    +0.000 N 
ATOM      5  C   UNL     1       6.984  -4.243  24.022  0.00  0.00    +0.000 C 
ATOM      6  O   UNL     1       6.235  -4.633  22.976  0.00  0.00    +0.000 OA
ATOM      7  C   UNL     1       7.850  -5.308  26.061  0.00  0.00    +0.000 C 
ATOM      8  C   UNL     1       7.431  -4.253  27.103  0.00  0.00    +0.000 C 
ENDROOT
BRANCH   1  11
ATOM      9  N   UNL     1       5.185  -2.011  27.634  0.00  0.00    +0.000 N 
ATOM     10  H   UNL     1       4.933  -2.010  28.455  0.00  0.00    +0.000 HD
ATOM     11  C   UNL     1       5.351  -2.977  26.818  0.00  0.00    +0.000 C 
ATOM     12  O   UNL     1       4.781  -3.032  25.703  0.00  0.00    +0.000 OA
BRANCH   9  18
ATOM     13  C   UNL     1       7.099  -0.768  26.893  0.00  0.00    +0.000 A 
ATOM     14  C   UNL     1       7.282  -0.241  25.493  0.00  0.00    +0.000 A 
ATOM     15  C   UNL     1       6.337   0.566  24.677  0.00  0.00    +0.000 A 
ATOM     16  C   UNL     1       5.137   0.736  25.560  0.00  0.00    +0.000 A 
ATOM     17  C   UNL     1       4.599   0.206  26.778  0.00  0.00    +0.000 A 
ATOM     18  C   UNL     1       5.681  -0.776  27.280  0.00  0.00    +0.000 A 
BRANCH  13  20
ATOM     19  H   UNL     1       7.914   0.861  27.396  0.00  0.00    +0.000 HD
ATOM     20  O   UNL     1       8.130  -0.052  27.533  0.00  0.00    +0.000 OA
ENDBRANCH  13  20
ENDBRANCH   9  18
ENDBRANCH   1  11
BRANCH   5  21
ATOM     21  C   UNL     1       8.026  -3.276  23.741  0.00  0.00    +0.000 C 
BRANCH  21  22
ATOM     22  N   UNL     1       8.292  -2.286  22.857  0.00  0.00    +0.000 NA
ATOM     23  C   UNL     1       9.617  -2.133  22.436  0.00  0.00    +0.000 C 
ATOM     24  C   UNL     1      10.115  -0.924  22.119  0.00  0.00    +0.000 A 
ATOM     25  C   UNL     1      10.499  -0.389  23.567  0.00  0.00    +0.000 A 
ATOM     26  C   UNL     1      10.307   0.987  24.069  0.00  0.00    +0.000 A 
ATOM     27  C   UNL     1       9.723   1.747  22.898  0.00  0.00    +0.000 A 
ATOM     28  C   UNL     1       9.344   1.446  21.578  0.00  0.00    +0.000 A 
ATOM     29  C   UNL     1       9.177  -0.052  21.480  0.00  0.00    +0.000 A 
ATOM     30  C   UNL     1       7.617  -0.401  21.452  0.00  0.00    +0.000 C 
ATOM     31  C   UNL     1       7.422  -1.801  21.872  0.00  0.00    +0.000 C 
BRANCH  30  32
ATOM     32  C   UNL     1       7.216   0.349  20.416  0.00  0.00    +0.000 A 
ATOM     33  C   UNL     1       6.302   1.513  20.891  0.00  0.00    +0.000 A 
ATOM     34  C   UNL     1       5.193   2.028  20.099  0.00  0.00    +0.000 A 
ATOM     35  C   UNL     1       5.219   1.386  18.754  0.00  0.00    +0.000 A 
ATOM     36  C   UNL     1       6.119   0.488  18.100  0.00  0.00    +0.000 A 
ATOM     37  C   UNL     1       7.368   0.347  18.954  0.00  0.00    +0.000 A 
ENDBRANCH  30  32
ENDBRANCH  21  22
ENDBRANCH   5  21
TORSDOF 6
ENDMDL
MODEL 5
REMARK VINA RESULT:      -8.1      1.280      1.775
REMARK  Name = 
REMARK  6 active torsions:
REMARK  status: ('A' for Active; 'I' for Inactive)
REMARK    1  A    between atoms: O_2  and  C_3
REMARK    2  A    between atoms: C_12  and  N_13
REMARK    3  A    between atoms: C_15  and  C_17
REMARK    4  A    between atoms: C_26  and  C_28
REMARK    5  A    between atoms: C_28  and  N_31
REMARK    6  A    between atoms: C_45  and  C_47
REMARK                            x       y       z     vdW  Elec       q    Type
REMARK                         _______ _______ _______ _____ _____    ______ ____
ROOT
ATOM      1  C   UNL     1      10.082   0.677  22.352  0.00  0.00    +0.000 C 
ATOM      2  C   UNL     1      10.652   1.581  23.378  0.00  0.00    +0.000 C 
ATOM      3  C   UNL     1       9.956   1.621  24.714  0.00  0.00    +0.000 C 
ATOM      4  N   UNL     1       9.097   0.404  24.848  0.00  0.00    +0.000 N 
ATOM      5  C   UNL     1       7.743   0.588  24.869  0.00  0.00    +0.000 C 
ATOM      6  O   UNL     1       7.472   1.609  25.700  0.00  0.00    +0.000 OA
ATOM      7  C   UNL     1       9.720  -0.771  24.335  0.00  0.00    +0.000 C 
ATOM      8  C   UNL     1       9.682  -0.693  22.797  0.00  0.00    +0.000 C 
ENDROOT
BRANCH   1  11
ATOM      9  N   UNL     1       8.419   0.868  20.583  0.00  0.00    +0.000 N 
ATOM     10  H   UNL     1       8.822   0.534  19.902  0.00  0.00    +0.000 HD
ATOM     11  C   UNL     1       8.883   1.340  21.673  0.00  0.00    +0.000 C 
ATOM     12  O   UNL     1       8.618   2.496  22.082  0.00  0.00    +0.000 OA
BRANCH   9  18
ATOM     13  C   UNL     1       6.259   1.748  20.022  0.00  0.00    +0.000 A 
ATOM     14  C   UNL     1       5.479   1.369  18.789  0.00  0.00    +0.000 A 
ATOM     15  C   UNL     1       5.151   0.010  18.283  0.00  0.00    +0.000 A 
ATOM     16  C   UNL     1       5.782  -0.918  19.277  0.00  0.00    +0.000 A 
ATOM     17  C   UNL     1       6.716  -0.876  20.363  0.00  0.00    +0.000 A 
ATOM     18  C   UNL     1       7.067   0.621  20.511  0.00  0.00    +0.000 A 
BRANCH  13  20
ATOM     19  H   UNL     1       5.259   3.301  20.418  0.00  0.00    +0.000 HD
ATOM     20  O   UNL     1       5.237   2.407  20.732  0.00  0.00    +0.000 OA
ENDBRANCH  13  20
ENDBRANCH   9  18
ENDBRANCH   1  11
BRANCH   5  21
ATOM     21  C   UNL     1       6.675  -0.369  24.659  0.00  0.00    +0.000 C 
BRANCH  21  22
ATOM     22  N   UNL     1       6.291  -1.589  25.102  0.00  0.00    +0.000 NA
ATOM     23  C   UNL     1       6.541  -1.899  26.442  0.00  0.00    +0.000 C 
ATOM     24  C   UNL     1       6.804  -3.159  26.831  0.00  0.00    +0.000 A 
ATOM     25  C   UNL     1       8.360  -3.236  26.509  0.00  0.00    +0.000 A 
ATOM     26  C   UNL     1       9.074  -4.385  25.918  0.00  0.00    +0.000 A 
ATOM     27  C   UNL     1       8.014  -5.452  25.747  0.00  0.00    +0.000 A 
ATOM     28  C   UNL     1       6.633  -5.560  25.986  0.00  0.00    +0.000 A 
ATOM     29  C   UNL     1       6.079  -4.160  26.109  0.00  0.00    +0.000 A 
ATOM     30  C   UNL     1       5.287  -3.794  24.768  0.00  0.00    +0.000 C 
ATOM     31  C   UNL     1       5.194  -2.328  24.640  0.00  0.00    +0.000 C 
BRANCH  30  32
ATOM     32  C   UNL     1       4.421  -4.814  24.709  0.00  0.00    +0.000 A 
ATOM     33  C   UNL     1       3.388  -4.738  25.868  0.00  0.00    +0.000 A 
ATOM     34  C   UNL     1       2.828  -5.917  26.514  0.00  0.00    +0.000 A 
ATOM     35  C   UNL     1       3.270  -7.132  25.772  0.00  0.00    +0.000 A 
ATOM     36  C   UNL     1       4.014  -7.345  24.570  0.00  0.00    +0.000 A 
ATOM     37  C   UNL     1       4.206  -6.007  23.876  0.00  0.00    +0.000 A 
ENDBRANCH  30  32
ENDBRANCH  21  22
ENDBRANCH   5  21
TORSDOF 6
ENDMDL
MODEL 6
REMARK VINA RESULT:      -7.9      1.170      2.419
REMARK  Name = 
REMARK  6 active torsions:
REMARK  status: ('A' for Active; 'I' for Inactive)
REMARK    1  A    between atoms: O_2  and  C_3
REMARK    2  A    between atoms: C_12  and  N_13
REMARK    3  A    between atoms: C_15  and  C_17
REMARK    4  A    between atoms: C_26  and  C_28
REMARK    5  A    between atoms: C_28  and  N_31
REMARK    6  A    between atoms: C_45  and  C_47
REMARK                            x       y       z     vdW  Elec       q    Type
REMARK                         _______ _______ _______ _____ _____    ______ ____
ROOT
ATOM      1  C   UNL     1      10.095   0.627  22.406  0.00  0.00    +0.000 C 
ATOM      2  C   UNL     1      10.672   0.979  23.724  0.00  0.00    +0.000 C 
ATOM      3  C   UNL     1      10.248   0.140  24.901  0.00  0.00    +0.000 C 
ATOM      4  N   UNL     1       9.671  -1.144  24.396  0.00  0.00    +0.000 N 
ATOM      5  C   UNL     1       8.336  -1.355  24.595  0.00  0.00    +0.000 C 
ATOM      6  O   UNL     1       8.044  -1.024  25.864  0.00  0.00    +0.000 OA
ATOM      7  C   UNL     1      10.391  -1.675  23.287  0.00  0.00    +0.000 C 
ATOM      8  C   UNL     1      10.048  -0.824  22.050  0.00  0.00    +0.000 C 
ENDROOT
BRANCH   1  11
ATOM      9  N   UNL     1       8.183   1.419  21.122  0.00  0.00    +0.000 N 
ATOM     10  H   UNL     1       8.543   1.711  20.399  0.00  0.00    +0.000 HD
ATOM     11  C   UNL     1       8.687   1.209  22.275  0.00  0.00    +0.000 C 
ATOM     12  O   UNL     1       8.230   1.725  23.322  0.00  0.00    +0.000 OA
BRANCH   9  18
ATOM     13  C   UNL     1       5.984   1.877  20.281  0.00  0.00    +0.000 A 
ATOM     14  C   UNL     1       5.464   1.396  18.950  0.00  0.00    +0.000 A 
ATOM     15  C   UNL     1       5.482   0.017  18.394  0.00  0.00    +0.000 A 
ATOM     16  C   UNL     1       6.150  -0.803  19.456  0.00  0.00    +0.000 A 
ATOM     17  C   UNL     1       6.905  -0.616  20.660  0.00  0.00    +0.000 A 
ATOM     18  C   UNL     1       6.929   0.915  20.866  0.00  0.00    +0.000 A 
BRANCH  13  20
ATOM     19  H   UNL     1       4.970   3.116  21.283  0.00  0.00    +0.000 HD
ATOM     20  O   UNL     1       4.767   2.298  20.851  0.00  0.00    +0.000 OA
ENDBRANCH  13  20
ENDBRANCH   9  18
ENDBRANCH   1  11
BRANCH   5  21
ATOM     21  C   UNL     1       7.442  -2.303  23.958  0.00  0.00    +0.000 C 
BRANCH  21  22
ATOM     22  N   UNL     1       6.289  -2.960  24.223  0.00  0.00    +0.000 NA
ATOM     23  C   UNL     1       5.185  -2.197  24.617  0.00  0.00    +0.000 C 
ATOM     24  C   UNL     1       4.264  -2.687  25.466  0.00  0.00    +0.000 A 
ATOM     25  C   UNL     1       4.978  -2.395  26.857  0.00  0.00    +0.000 A 
ATOM     26  C   UNL     1       5.008  -3.294  28.028  0.00  0.00    +0.000 A 
ATOM     27  C   UNL     1       4.181  -4.493  27.617  0.00  0.00    +0.000 A 
ATOM     28  C   UNL     1       3.482  -4.899  26.465  0.00  0.00    +0.000 A 
ATOM     29  C   UNL     1       4.001  -4.084  25.305  0.00  0.00    +0.000 A 
ATOM     30  C   UNL     1       4.958  -5.003  24.410  0.00  0.00    +0.000 C 
ATOM     31  C   UNL     1       5.855  -4.145  23.615  0.00  0.00    +0.000 C 
BRANCH  30  32
ATOM     32  C   UNL     1       4.136  -6.028  24.147  0.00  0.00    +0.000 A 
ATOM     33  C   UNL     1       3.039  -5.617  23.126  0.00  0.00    +0.000 A 
ATOM     34  C   UNL     1       1.683  -6.148  23.158  0.00  0.00    +0.000 A 
ATOM     35  C   UNL     1       1.611  -7.232  24.179  0.00  0.00    +0.000 A 
ATOM     36  C   UNL     1       2.577  -7.872  25.017  0.00  0.00    +0.000 A 
ATOM     37  C   UNL     1       3.963  -7.419  24.591  0.00  0.00    +0.000 A 
ENDBRANCH  30  32
ENDBRANCH  21  22
ENDBRANCH   5  21
TORSDOF 6
ENDMDL
MODEL 7
REMARK VINA RESULT:      -7.9      2.294      3.115
REMARK  Name = 
REMARK  6 active torsions:
REMARK  status: ('A' for Active; 'I' for Inactive)
REMARK    1  A    between atoms: O_2  and  C_3
REMARK    2  A    between atoms: C_12  and  N_13
REMARK    3  A    between atoms: C_15  and  C_17
REMARK    4  A    between atoms: C_26  and  C_28
REMARK    5  A    between atoms: C_28  and  N_31
REMARK    6  A    between atoms: C_45  and  C_47
REMARK                            x       y       z     vdW  Elec       q    Type
REMARK                         _______ _______ _______ _____ _____    ______ ____
ROOT
ATOM      1  C   UNL     1       9.543   1.423  21.882  0.00  0.00    +0.000 C 
ATOM      2  C   UNL     1      10.343   1.995  22.989  0.00  0.00    +0.000 C 
ATOM      3  C   UNL     1      10.398   1.204  24.270  0.00  0.00    +0.000 C 
ATOM      4  N   UNL     1       9.984  -0.205  23.987  0.00  0.00    +0.000 N 
ATOM      5  C   UNL     1       8.810  -0.638  24.533  0.00  0.00    +0.000 C 
ATOM      6  O   UNL     1       8.778  -0.250  25.819  0.00  0.00    +0.000 OA
ATOM      7  C   UNL     1      10.503  -0.695  22.753  0.00  0.00    +0.000 C 
ATOM      8  C   UNL     1       9.702  -0.039  21.611  0.00  0.00    +0.000 C 
ENDROOT
BRANCH   1  11
ATOM      9  N   UNL     1       7.699   2.737  22.777  0.00  0.00    +0.000 N 
ATOM     10  H   UNL     1       8.033   3.078  23.491  0.00  0.00    +0.000 HD
ATOM     11  C   UNL     1       8.059   1.722  22.094  0.00  0.00    +0.000 C 
ATOM     12  O   UNL     1       7.286   0.771  21.829  0.00  0.00    +0.000 OA
BRANCH   9  18
ATOM     13  C   UNL     1       5.379   3.161  22.339  0.00  0.00    +0.000 A 
ATOM     14  C   UNL     1       4.547   4.183  23.070  0.00  0.00    +0.000 A 
ATOM     15  C   UNL     1       4.850   5.618  23.314  0.00  0.00    +0.000 A 
ATOM     16  C   UNL     1       6.189   5.829  22.674  0.00  0.00    +0.000 A 
ATOM     17  C   UNL     1       7.267   5.057  22.129  0.00  0.00    +0.000 A 
ATOM     18  C   UNL     1       6.778   3.595  22.220  0.00  0.00    +0.000 A 
BRANCH  13  20
ATOM     19  H   UNL     1       4.199   2.001  21.426  0.00  0.00    +0.000 HD
ATOM     20  O   UNL     1       4.500   2.887  21.272  0.00  0.00    +0.000 OA
ENDBRANCH  13  20
ENDBRANCH   9  18
ENDBRANCH   1  11
BRANCH   5  21
ATOM     21  C   UNL     1       7.996  -1.788  24.190  0.00  0.00    +0.000 C 
BRANCH  21  22
ATOM     22  N   UNL     1       7.494  -2.899  24.777  0.00  0.00    +0.000 NA
ATOM     23  C   UNL     1       8.188  -4.099  24.592  0.00  0.00    +0.000 C 
ATOM     24  C   UNL     1       7.545  -5.279  24.549  0.00  0.00    +0.000 A 
ATOM     25  C   UNL     1       7.084  -5.295  23.027  0.00  0.00    +0.000 A 
ATOM     26  C   UNL     1       5.778  -5.757  22.514  0.00  0.00    +0.000 A 
ATOM     27  C   UNL     1       5.032  -6.241  23.738  0.00  0.00    +0.000 A 
ATOM     28  C   UNL     1       5.285  -6.315  25.120  0.00  0.00    +0.000 A 
ATOM     29  C   UNL     1       6.419  -5.367  25.429  0.00  0.00    +0.000 A 
ATOM     30  C   UNL     1       5.827  -4.061  26.138  0.00  0.00    +0.000 C 
ATOM     31  C   UNL     1       6.779  -2.945  25.981  0.00  0.00    +0.000 C 
BRANCH  30  32
ATOM     32  C   UNL     1       5.170  -4.617  27.165  0.00  0.00    +0.000 A 
ATOM     33  C   UNL     1       6.159  -5.235  28.192  0.00  0.00    +0.000 A 
ATOM     34  C   UNL     1       5.862  -6.438  28.958  0.00  0.00    +0.000 A 
ATOM     35  C   UNL     1       4.445  -6.829  28.716  0.00  0.00    +0.000 A 
ATOM     36  C   UNL     1       3.361  -6.238  27.995  0.00  0.00    +0.000 A 
ATOM     37  C   UNL     1       3.773  -4.840  27.563  0.00  0.00    +0.000 A 
ENDBRANCH  30  32
ENDBRANCH  21  22
ENDBRANCH   5  21
TORSDOF 6
ENDMDL
MODEL 8
REMARK VINA RESULT:      -7.8      1.763      2.106
REMARK  Name = 
REMARK  6 active torsions:
REMARK  status: ('A' for Active; 'I' for Inactive)
REMARK    1  A    between atoms: O_2  and  C_3
REMARK    2  A    between atoms: C_12  and  N_13
REMARK    3  A    between atoms: C_15  and  C_17
REMARK    4  A    between atoms: C_26  and  C_28
REMARK    5  A    between atoms: C_28  and  N_31
REMARK    6  A    between atoms: C_45  and  C_47
REMARK                            x       y       z     vdW  Elec       q    Type
REMARK                         _______ _______ _______ _____ _____    ______ ____
ROOT
ATOM      1  C   UNL     1       9.990   0.400  22.386  0.00  0.00    +0.000 C 
ATOM      2  C   UNL     1       9.404   1.742  22.612  0.00  0.00    +0.000 C 
ATOM      3  C   UNL     1       8.671   1.956  23.911  0.00  0.00    +0.000 C 
ATOM      4  N   UNL     1       9.077   0.888  24.877  0.00  0.00    +0.000 N 
ATOM      5  C   UNL     1       8.127  -0.022  25.244  0.00  0.00    +0.000 C 
ATOM      6  O   UNL     1       6.994   0.644  25.526  0.00  0.00    +0.000 OA
ATOM      7  C   UNL     1      10.468   0.588  24.815  0.00  0.00    +0.000 C 
ATOM      8  C   UNL     1      10.719  -0.227  23.531  0.00  0.00    +0.000 C 
ENDROOT
BRANCH   1  11
ATOM      9  N   UNL     1       7.768  -0.135  21.543  0.00  0.00    +0.000 N 
ATOM     10  H   UNL     1       7.281   0.493  21.870  0.00  0.00    +0.000 HD
ATOM     11  C   UNL     1       8.912  -0.571  21.902  0.00  0.00    +0.000 C 
ATOM     12  O   UNL     1       9.127  -1.776  22.175  0.00  0.00    +0.000 OA
BRANCH   9  18
ATOM     13  C   UNL     1       5.828  -0.753  20.276  0.00  0.00    +0.000 A 
ATOM     14  C   UNL     1       5.172   0.123  19.239  0.00  0.00    +0.000 A 
ATOM     15  C   UNL     1       5.802   0.827  18.092  0.00  0.00    +0.000 A 
ATOM     16  C   UNL     1       7.256   0.479  18.195  0.00  0.00    +0.000 A 
ATOM     17  C   UNL     1       8.169  -0.112  19.129  0.00  0.00    +0.000 A 
ATOM     18  C   UNL     1       7.281  -0.535  20.320  0.00  0.00    +0.000 A 
BRANCH  13  20
ATOM     19  H   UNL     1       4.587  -2.113  20.702  0.00  0.00    +0.000 HD
ATOM     20  O   UNL     1       5.179  -1.967  19.976  0.00  0.00    +0.000 OA
ENDBRANCH  13  20
ENDBRANCH   9  18
ENDBRANCH   1  11
BRANCH   5  21
ATOM     21  C   UNL     1       8.281  -1.320  25.871  0.00  0.00    +0.000 C 
BRANCH  21  22
ATOM     22  N   UNL     1       7.587  -2.472  26.023  0.00  0.00    +0.000 NA
ATOM     23  C   UNL     1       8.315  -3.666  26.062  0.00  0.00    +0.000 C 
ATOM     24  C   UNL     1       7.800  -4.815  25.589  0.00  0.00    +0.000 A 
ATOM     25  C   UNL     1       8.122  -4.652  24.040  0.00  0.00    +0.000 A 
ATOM     26  C   UNL     1       7.231  -5.016  22.920  0.00  0.00    +0.000 A 
ATOM     27  C   UNL     1       6.004  -5.607  23.578  0.00  0.00    +0.000 A 
ATOM     28  C   UNL     1       5.569  -5.837  24.896  0.00  0.00    +0.000 A 
ATOM     29  C   UNL     1       6.394  -4.962  25.810  0.00  0.00    +0.000 A 
ATOM     30  C   UNL     1       5.503  -3.723  26.289  0.00  0.00    +0.000 C 
ATOM     31  C   UNL     1       6.385  -2.626  26.727  0.00  0.00    +0.000 C 
BRANCH  30  32
ATOM     32  C   UNL     1       4.449  -4.366  26.810  0.00  0.00    +0.000 A 
ATOM     33  C   UNL     1       4.860  -5.187  28.064  0.00  0.00    +0.000 A 
ATOM     34  C   UNL     1       4.246  -6.459  28.419  0.00  0.00    +0.000 A 
ATOM     35  C   UNL     1       3.095  -6.713  27.507  0.00  0.00    +0.000 A 
ATOM     36  C   UNL     1       2.460  -5.954  26.476  0.00  0.00    +0.000 A 
ATOM     37  C   UNL     1       3.024  -4.543  26.496  0.00  0.00    +0.000 A 
ENDBRANCH  30  32
ENDBRANCH  21  22
ENDBRANCH   5  21
TORSDOF 6
ENDMDL
MODEL 9
REMARK VINA RESULT:      -7.7      2.886      7.831
REMARK  Name = 
REMARK  6 active torsions:
REMARK  status: ('A' for Active; 'I' for Inactive)
REMARK    1  A    between atoms: O_2  and  C_3
REMARK    2  A    between atoms: C_12  and  N_13
REMARK    3  A    between atoms: C_15  and  C_17
REMARK    4  A    between atoms: C_26  and  C_28
REMARK    5  A    between atoms: C_28  and  N_31
REMARK    6  A    between atoms: C_45  and  C_47
REMARK                            x       y       z     vdW  Elec       q    Type
REMARK                         _______ _______ _______ _____ _____    ______ ____
ROOT
ATOM      1  C   UNL     1       6.997  -4.414  27.174  0.00  0.00    +0.000 C 
ATOM      2  C   UNL     1       6.178  -5.517  26.619  0.00  0.00    +0.000 C 
ATOM      3  C   UNL     1       6.330  -5.806  25.148  0.00  0.00    +0.000 C 
ATOM      4  N   UNL     1       7.607  -5.194  24.665  0.00  0.00    +0.000 N 
ATOM      5  C   UNL     1       7.513  -4.153  23.786  0.00  0.00    +0.000 C 
ATOM      6  O   UNL     1       6.610  -4.478  22.846  0.00  0.00    +0.000 OA
ATOM      7  C   UNL     1       8.676  -5.340  25.596  0.00  0.00    +0.000 C 
ATOM      8  C   UNL     1       8.430  -4.353  26.754  0.00  0.00    +0.000 C 
ENDROOT
BRANCH   1  11
ATOM      9  N   UNL     1       5.162  -3.019  26.389  0.00  0.00    +0.000 N 
ATOM     10  H   UNL     1       4.778  -3.517  25.804  0.00  0.00    +0.000 HD
ATOM     11  C   UNL     1       6.341  -3.066  26.873  0.00  0.00    +0.000 C 
ATOM     12  O   UNL     1       7.129  -2.091  26.844  0.00  0.00    +0.000 OA
BRANCH   9  18
ATOM     13  C   UNL     1       3.772  -2.703  28.318  0.00  0.00    +0.000 A 
ATOM     14  C   UNL     1       4.049  -1.705  29.413  0.00  0.00    +0.000 A 
ATOM     15  C   UNL     1       4.351  -0.255  29.288  0.00  0.00    +0.000 A 
ATOM     16  C   UNL     1       4.329   0.003  27.812  0.00  0.00    +0.000 A 
ATOM     17  C   UNL     1       4.316  -0.731  26.580  0.00  0.00    +0.000 A 
ATOM     18  C   UNL     1       4.240  -2.211  27.014  0.00  0.00    +0.000 A 
BRANCH  13  20
ATOM     19  H   UNL     1       2.232  -2.472  29.388  0.00  0.00    +0.000 HD
ATOM     20  O   UNL     1       2.444  -3.032  28.653  0.00  0.00    +0.000 OA
ENDBRANCH  13  20
ENDBRANCH   9  18
ENDBRANCH   1  11
BRANCH   5  21
ATOM     21  C   UNL     1       8.507  -3.168  23.407  0.00  0.00    +0.000 C 
BRANCH  21  22
ATOM     22  N   UNL     1       8.617  -2.079  22.610  0.00  0.00    +0.000 NA
ATOM     23  C   UNL     1       9.906  -1.653  22.272  0.00  0.00    +0.000 C 
ATOM     24  C   UNL     1      10.180  -0.352  22.066  0.00  0.00    +0.000 A 
ATOM     25  C   UNL     1      10.400   0.130  23.566  0.00  0.00    +0.000 A 
ATOM     26  C   UNL     1       9.933   1.403  24.151  0.00  0.00    +0.000 A 
ATOM     27  C   UNL     1       9.263   2.132  23.006  0.00  0.00    +0.000 A 
ATOM     28  C   UNL     1       9.000   1.870  21.650  0.00  0.00    +0.000 A 
ATOM     29  C   UNL     1       9.122   0.380  21.440  0.00  0.00    +0.000 A 
ATOM     30  C   UNL     1       7.657  -0.248  21.304  0.00  0.00    +0.000 C 
ATOM     31  C   UNL     1       7.711  -1.688  21.615  0.00  0.00    +0.000 C 
BRANCH  30  32
ATOM     32  C   UNL     1       7.164   0.494  20.303  0.00  0.00    +0.000 A 
ATOM     33  C   UNL     1       6.206   1.593  20.841  0.00  0.00    +0.000 A 
ATOM     34  C   UNL     1       5.033   2.053  20.112  0.00  0.00    +0.000 A 
ATOM     35  C   UNL     1       5.033   1.437  18.755  0.00  0.00    +0.000 A 
ATOM     36  C   UNL     1       5.953   0.605  18.042  0.00  0.00    +0.000 A 
ATOM     37  C   UNL     1       7.247   0.525  18.836  0.00  0.00    +0.000 A 
ENDBRANCH  30  32
ENDBRANCH  21  22
ENDBRANCH   5  21
TORSDOF 6
ENDMDL
