MODEL 1
REMARK VINA RESULT:      -8.8      0.000      0.000
REMARK  Name = 
REMARK  8 active torsions:
REMARK  status: ('A' for Active; 'I' for Inactive)
REMARK    1  A    between atoms: C_5  and  C_6
REMARK    2  A    between atoms: C_10  and  S_11
REMARK    3  A    between atoms: S_11  and  N_14
REMARK    4  A    between atoms: C_22  and  C_24
REMARK    5  A    between atoms: N_26  and  C_28
REMARK    6  A    between atoms: C_28  and  C_30
REMARK    7  A    between atoms: C_28  and  C_47
REMARK    8  A    between atoms: C_59  and  C_60
REMARK                            x       y       z     vdW  Elec       q    Type
REMARK                         _______ _______ _______ _____ _____    ______ ____
ROOT
ATOM      1  N   UNL     1       7.513  -2.372  26.104  0.00  0.00    +0.000 NA
ATOM      2  C   UNL     1       8.576  -1.676  26.738  0.00  0.00    +0.000 C 
ATOM      3  C   UNL     1       8.666  -0.216  26.461  0.00  0.00    +0.000 C 
ATOM      4  N   UNL     1       7.486   0.355  25.830  0.00  0.00    +0.000 N 
ATOM      5  C   UNL     1       7.439   1.724  25.814  0.00  0.00    +0.000 C 
ATOM      6  O   UNL     1       7.314   2.376  26.797  0.00  0.00    +0.000 OA
ATOM      7  C   UNL     1       6.205  -0.292  25.948  0.00  0.00    +0.000 C 
ATOM      8  C   UNL     1       6.285  -1.730  26.411  0.00  0.00    +0.000 C 
ENDROOT
BRANCH   5   9
ATOM      9  C   UNL     1       8.407   2.243  24.973  0.00  0.00    +0.000 C 
ATOM     10  O   UNL     1       8.473   3.445  25.214  0.00  0.00    +0.000 OA
ATOM     11  N   UNL     1       8.144   1.831  23.719  0.00  0.00    +0.000 N 
ATOM     12  H   UNL     1       7.164   1.666  23.697  0.00  0.00    +0.000 HD
BRANCH  11  13
ATOM     13  C   UNL     1       8.898   2.010  22.569  0.00  0.00    +0.000 C 
ATOM     14  C   UNL     1      10.338   2.396  22.715  0.00  0.00    +0.000 C 
BRANCH  13  15
ATOM     15  C   UNL     1       8.673   0.994  21.491  0.00  0.00    +0.000 A 
ATOM     16  C   UNL     1       9.769  -0.065  21.674  0.00  0.00    +0.000 A 
ATOM     17  C   UNL     1       9.496  -1.512  21.908  0.00  0.00    +0.000 A 
ATOM     18  C   UNL     1       8.032  -1.718  21.904  0.00  0.00    +0.000 A 
ATOM     19  C   UNL     1       6.907  -0.950  21.752  0.00  0.00    +0.000 A 
ATOM     20  C   UNL     1       6.225  -1.519  20.709  0.00  0.00    +0.000 A 
ATOM     21  C   UNL     1       5.808  -1.707  19.398  0.00  0.00    +0.000 A 
ATOM     22  C   UNL     1       6.348  -0.316  18.986  0.00  0.00    +0.000 A 
ATOM     23  C   UNL     1       7.109   0.552  19.638  0.00  0.00    +0.000 A 
ATOM     24  C   UNL     1       7.409   0.417  21.063  0.00  0.00    +0.000 A 
ENDBRANCH  13  15
ENDBRANCH  11  13
ENDBRANCH   5   9
BRANCH   1  25
ATOM     25  S   UNL     1       7.518  -3.932  26.347  0.00  0.00    +0.000 S 
ATOM     26  O   UNL     1       8.951  -4.403  26.477  0.00  0.00    +0.000 OA
ATOM     27  O   UNL     1       6.835  -4.301  27.598  0.00  0.00    +0.000 OA
BRANCH  25  32
ATOM     28  C   UNL     1       5.308  -4.437  22.770  0.00  0.00    +0.000 A 
ATOM     29  C   UNL     1       4.689  -4.952  24.052  0.00  0.00    +0.000 A 
ATOM     30  C   UNL     1       5.463  -5.255  25.284  0.00  0.00    +0.000 A 
ATOM     31  C   UNL     1       4.807  -4.676  26.419  0.00  0.00    +0.000 C 
ATOM     32  C   UNL     1       6.929  -5.089  25.101  0.00  0.00    +0.000 A 
ATOM     33  C   UNL     1       7.647  -5.041  23.793  0.00  0.00    +0.000 A 
ATOM     34  C   UNL     1       6.718  -4.807  22.588  0.00  0.00    +0.000 A 
ATOM     35  C   UNL     1       6.953  -5.811  21.403  0.00  0.00    +0.000 C 
ENDBRANCH  25  32
ENDBRANCH   1  25
TORSDOF 5
ENDMDL
MODEL 2
REMARK VINA RESULT:      -8.5      2.668      3.970
REMARK  Name = 
REMARK  8 active torsions:
REMARK  status: ('A' for Active; 'I' for Inactive)
REMARK    1  A    between atoms: C_5  and  C_6
REMARK    2  A    between atoms: C_10  and  S_11
REMARK    3  A    between atoms: S_11  and  N_14
REMARK    4  A    between atoms: C_22  and  C_24
REMARK    5  A    between atoms: N_26  and  C_28
REMARK    6  A    between atoms: C_28  and  C_30
REMARK    7  A    between atoms: C_28  and  C_47
REMARK    8  A    between atoms: C_59  and  C_60
REMARK                            x       y       z     vdW  Elec       q    Type
REMARK                         _______ _______ _______ _____ _____    ______ ____
ROOT
ATOM      1  N   UNL     1       6.072  -5.037  26.411  0.00  0.00    +0.000 NA
ATOM      2  C   UNL     1       6.389  -5.436  25.086  0.00  0.00    +0.000 C 
ATOM      3  C   UNL     1       7.544  -4.748  24.449  0.00  0.00    +0.000 C 
ATOM      4  N   UNL     1       8.376  -3.984  25.367  0.00  0.00    +0.000 N 
ATOM      5  C   UNL     1       9.579  -3.572  24.857  0.00  0.00    +0.000 C 
ATOM      6  O   UNL     1      10.454  -4.324  24.580  0.00  0.00    +0.000 OA
ATOM      7  C   UNL     1       8.390  -4.291  26.773  0.00  0.00    +0.000 C 
ATOM      8  C   UNL     1       7.229  -5.151  27.224  0.00  0.00    +0.000 C 
ENDROOT
BRANCH   5   9
ATOM      9  C   UNL     1       9.399  -2.612  23.877  0.00  0.00    +0.000 C 
ATOM     10  O   UNL     1      10.307  -2.766  23.064  0.00  0.00    +0.000 OA
ATOM     11  N   UNL     1       9.243  -1.418  24.479  0.00  0.00    +0.000 N 
ATOM     12  H   UNL     1       9.715  -1.498  25.350  0.00  0.00    +0.000 HD
BRANCH  11  13
ATOM     13  C   UNL     1       8.928  -0.193  23.910  0.00  0.00    +0.000 C 
ATOM     14  C   UNL     1      10.040   0.638  23.348  0.00  0.00    +0.000 C 
BRANCH  13  15
ATOM     15  C   UNL     1       7.701  -0.182  23.050  0.00  0.00    +0.000 A 
ATOM     16  C   UNL     1       6.961   1.120  23.386  0.00  0.00    +0.000 A 
ATOM     17  C   UNL     1       6.632   2.172  22.382  0.00  0.00    +0.000 A 
ATOM     18  C   UNL     1       7.113   1.722  21.059  0.00  0.00    +0.000 A 
ATOM     19  C   UNL     1       7.763   0.632  20.540  0.00  0.00    +0.000 A 
ATOM     20  C   UNL     1       6.938   0.160  19.554  0.00  0.00    +0.000 A 
ATOM     21  C   UNL     1       5.956  -0.629  18.971  0.00  0.00    +0.000 A 
ATOM     22  C   UNL     1       6.012  -1.635  20.146  0.00  0.00    +0.000 A 
ATOM     23  C   UNL     1       6.618  -1.569  21.323  0.00  0.00    +0.000 A 
ATOM     24  C   UNL     1       7.599  -0.531  21.642  0.00  0.00    +0.000 A 
ENDBRANCH  13  15
ENDBRANCH  11  13
ENDBRANCH   5   9
BRANCH   1  25
ATOM     25  S   UNL     1       4.780  -5.723  27.008  0.00  0.00    +0.000 S 
ATOM     26  O   UNL     1       5.096  -7.168  27.328  0.00  0.00    +0.000 OA
ATOM     27  O   UNL     1       4.350  -5.093  28.267  0.00  0.00    +0.000 OA
BRANCH  25  32
ATOM     28  C   UNL     1       3.097  -5.852  23.123  0.00  0.00    +0.000 A 
ATOM     29  C   UNL     1       2.780  -4.647  23.982  0.00  0.00    +0.000 A 
ATOM     30  C   UNL     1       2.905  -4.627  25.463  0.00  0.00    +0.000 A 
ATOM     31  C   UNL     1       3.596  -3.439  25.871  0.00  0.00    +0.000 C 
ATOM     32  C   UNL     1       3.287  -5.947  26.029  0.00  0.00    +0.000 A 
ATOM     33  C   UNL     1       3.168  -7.263  25.335  0.00  0.00    +0.000 A 
ATOM     34  C   UNL     1       2.955  -7.141  23.814  0.00  0.00    +0.000 A 
ATOM     35  C   UNL     1       1.770  -8.016  23.269  0.00  0.00    +0.000 C 
ENDBRANCH  25  32
ENDBRANCH   1  25
TORSDOF 5
ENDMDL
MODEL 3
REMARK VINA RESULT:      -7.8      2.818      7.604
REMARK  Name = 
REMARK  8 active torsions:
REMARK  status: ('A' for Active; 'I' for Inactive)
REMARK    1  A    between atoms: C_5  and  C_6
REMARK    2  A    between atoms: C_10  and  S_11
REMARK    3  A    between atoms: S_11  and  N_14
REMARK    4  A    between atoms: C_22  and  C_24
REMARK    5  A    between atoms: N_26  and  C_28
REMARK    6  A    between atoms: C_28  and  C_30
REMARK    7  A    between atoms: C_28  and  C_47
REMARK    8  A    between atoms: C_59  and  C_60
REMARK                            x       y       z     vdW  Elec       q    Type
REMARK                         _______ _______ _______ _____ _____    ______ ____
ROOT
ATOM      1  N   UNL     1       8.353   2.087  23.104  0.00  0.00    +0.000 NA
ATOM      2  C   UNL     1       8.947   1.482  24.243  0.00  0.00    +0.000 C 
ATOM      3  C   UNL     1       9.222   0.023  24.146  0.00  0.00    +0.000 C 
ATOM      4  N   UNL     1       9.128  -0.524  22.800  0.00  0.00    +0.000 N 
ATOM      5  C   UNL     1       9.635  -1.787  22.648  0.00  0.00    +0.000 C 
ATOM      6  O   UNL     1      10.791  -2.034  22.743  0.00  0.00    +0.000 OA
ATOM      7  C   UNL     1       9.278   0.329  21.650  0.00  0.00    +0.000 C 
ATOM      8  C   UNL     1       9.141   1.804  21.959  0.00  0.00    +0.000 C 
ENDROOT
BRANCH   5   9
ATOM      9  C   UNL     1       8.856  -2.717  23.314  0.00  0.00    +0.000 C 
ATOM     10  O   UNL     1       9.630  -3.465  23.904  0.00  0.00    +0.000 OA
ATOM     11  N   UNL     1       7.972  -3.232  22.439  0.00  0.00    +0.000 N 
ATOM     12  H   UNL     1       8.399  -3.136  21.546  0.00  0.00    +0.000 HD
BRANCH  11  13
ATOM     13  C   UNL     1       6.926  -4.111  22.677  0.00  0.00    +0.000 C 
ATOM     14  C   UNL     1       7.021  -5.498  22.122  0.00  0.00    +0.000 C 
BRANCH  13  15
ATOM     15  C   UNL     1       6.363  -4.076  24.065  0.00  0.00    +0.000 A 
ATOM     16  C   UNL     1       4.976  -3.431  23.943  0.00  0.00    +0.000 A 
ATOM     17  C   UNL     1       3.710  -4.094  24.367  0.00  0.00    +0.000 A 
ATOM     18  C   UNL     1       4.042  -5.422  24.926  0.00  0.00    +0.000 A 
ATOM     19  C   UNL     1       5.169  -6.171  25.139  0.00  0.00    +0.000 A 
ATOM     20  C   UNL     1       5.162  -6.453  26.480  0.00  0.00    +0.000 A 
ATOM     21  C   UNL     1       5.471  -6.303  27.825  0.00  0.00    +0.000 A 
ATOM     22  C   UNL     1       6.638  -5.344  27.489  0.00  0.00    +0.000 A 
ATOM     23  C   UNL     1       6.986  -4.758  26.351  0.00  0.00    +0.000 A 
ATOM     24  C   UNL     1       6.398  -5.133  25.065  0.00  0.00    +0.000 A 
ENDBRANCH  13  15
ENDBRANCH  11  13
ENDBRANCH   5   9
BRANCH   1  25
ATOM     25  S   UNL     1       7.989   3.613  23.291  0.00  0.00    +0.000 S 
ATOM     26  O   UNL     1       9.251   4.380  23.624  0.00  0.00    +0.000 OA
ATOM     27  O   UNL     1       7.443   4.207  22.060  0.00  0.00    +0.000 OA
BRANCH  25  32
ATOM     28  C   UNL     1       6.230   2.681  27.029  0.00  0.00    +0.000 A 
ATOM     29  C   UNL     1       5.322   2.714  25.819  0.00  0.00    +0.000 A 
ATOM     30  C   UNL     1       5.650   3.422  24.554  0.00  0.00    +0.000 A 
ATOM     31  C   UNL     1       5.385   2.562  23.438  0.00  0.00    +0.000 C 
ATOM     32  C   UNL     1       6.928   4.178  24.630  0.00  0.00    +0.000 A 
ATOM     33  C   UNL     1       7.634   4.578  25.882  0.00  0.00    +0.000 A 
ATOM     34  C   UNL     1       7.139   3.831  27.134  0.00  0.00    +0.000 A 
ATOM     35  C   UNL     1       6.818   4.774  28.348  0.00  0.00    +0.000 C 
ENDBRANCH  25  32
ENDBRANCH   1  25
TORSDOF 5
ENDMDL
MODEL 4
REMARK VINA RESULT:      -7.8      2.104      6.065
REMARK  Name = 
REMARK  8 active torsions:
REMARK  status: ('A' for Active; 'I' for Inactive)
REMARK    1  A    between atoms: C_5  and  C_6
REMARK    2  A    between atoms: C_10  and  S_11
REMARK    3  A    between atoms: S_11  and  N_14
REMARK    4  A    between atoms: C_22  and  C_24
REMARK    5  A    between atoms: N_26  and  C_28
REMARK    6  A    between atoms: C_28  and  C_30
REMARK    7  A    between atoms: C_28  and  C_47
REMARK    8  A    between atoms: C_59  and  C_60
REMARK                            x       y       z     vdW  Elec       q    Type
REMARK                         _______ _______ _______ _____ _____    ______ ____
ROOT
ATOM      1  N   UNL     1       8.205   0.201  24.938  0.00  0.00    +0.000 NA
ATOM      2  C   UNL     1       6.949   0.849  24.820  0.00  0.00    +0.000 C 
ATOM      3  C   UNL     1       5.871   0.371  25.729  0.00  0.00    +0.000 C 
ATOM      4  N   UNL     1       6.330  -0.481  26.817  0.00  0.00    +0.000 N 
ATOM      5  C   UNL     1       5.410  -0.708  27.806  0.00  0.00    +0.000 C 
ATOM      6  O   UNL     1       5.029   0.143  28.540  0.00  0.00    +0.000 OA
ATOM      7  C   UNL     1       7.696  -0.427  27.264  0.00  0.00    +0.000 C 
ATOM      8  C   UNL     1       8.634   0.252  26.290  0.00  0.00    +0.000 C 
ENDROOT
BRANCH   5   9
ATOM      9  C   UNL     1       4.367  -1.490  27.343  0.00  0.00    +0.000 C 
ATOM     10  O   UNL     1       3.461  -1.389  28.166  0.00  0.00    +0.000 OA
ATOM     11  N   UNL     1       4.854  -2.708  27.038  0.00  0.00    +0.000 N 
ATOM     12  H   UNL     1       5.658  -2.820  27.612  0.00  0.00    +0.000 HD
BRANCH  11  13
ATOM     13  C   UNL     1       4.206  -3.778  26.441  0.00  0.00    +0.000 C 
ATOM     14  C   UNL     1       2.936  -3.513  25.691  0.00  0.00    +0.000 C 
BRANCH  13  15
ATOM     15  C   UNL     1       5.099  -4.761  25.746  0.00  0.00    +0.000 A 
ATOM     16  C   UNL     1       4.551  -6.151  26.098  0.00  0.00    +0.000 A 
ATOM     17  C   UNL     1       4.099  -7.147  25.085  0.00  0.00    +0.000 A 
ATOM     18  C   UNL     1       4.296  -6.568  23.739  0.00  0.00    +0.000 A 
ATOM     19  C   UNL     1       4.765  -5.396  23.206  0.00  0.00    +0.000 A 
ATOM     20  C   UNL     1       5.778  -5.767  22.363  0.00  0.00    +0.000 A 
ATOM     21  C   UNL     1       7.080  -6.025  21.956  0.00  0.00    +0.000 A 
ATOM     22  C   UNL     1       7.652  -5.254  23.170  0.00  0.00    +0.000 A 
ATOM     23  C   UNL     1       7.062  -4.771  24.255  0.00  0.00    +0.000 A 
ATOM     24  C   UNL     1       5.607  -4.692  24.385  0.00  0.00    +0.000 A 
ENDBRANCH  13  15
ENDBRANCH  11  13
ENDBRANCH   5   9
BRANCH   1  25
ATOM     25  S   UNL     1       9.286   0.673  23.887  0.00  0.00    +0.000 S 
ATOM     26  O   UNL     1       9.097   2.152  23.623  0.00  0.00    +0.000 OA
ATOM     27  O   UNL     1      10.659   0.504  24.389  0.00  0.00    +0.000 OA
BRANCH  25  32
ATOM     28  C   UNL     1       7.132  -1.365  20.863  0.00  0.00    +0.000 A 
ATOM     29  C   UNL     1       8.287  -2.096  21.512  0.00  0.00    +0.000 A 
ATOM     30  C   UNL     1       9.391  -1.422  22.244  0.00  0.00    +0.000 A 
ATOM     31  C   UNL     1       9.620  -2.091  23.491  0.00  0.00    +0.000 C 
ATOM     32  C   UNL     1       9.295   0.061  22.195  0.00  0.00    +0.000 A 
ATOM     33  C   UNL     1       8.487   0.853  21.223  0.00  0.00    +0.000 A 
ATOM     34  C   UNL     1       7.437   0.017  20.468  0.00  0.00    +0.000 A 
ATOM     35  C   UNL     1       7.455   0.234  18.912  0.00  0.00    +0.000 C 
ENDBRANCH  25  32
ENDBRANCH   1  25
TORSDOF 5
ENDMDL
MODEL 5
REMARK VINA RESULT:      -7.7      1.458      2.146
REMARK  Name = 
REMARK  8 active torsions:
REMARK  status: ('A' for Active; 'I' for Inactive)
REMARK    1  A    between atoms: C_5  and  C_6
REMARK    2  A    between atoms: C_10  and  S_11
REMARK    3  A    between atoms: S_11  and  N_14
REMARK    4  A    between atoms: C_22  and  C_24
REMARK    5  A    between atoms: N_26  and  C_28
REMARK    6  A    between atoms: C_28  and  C_30
REMARK    7  A    between atoms: C_28  and  C_47
REMARK    8  A    between atoms: C_59  and  C_60
REMARK                            x       y       z     vdW  Elec       q    Type
REMARK                         _______ _______ _______ _____ _____    ______ ____
ROOT
ATOM      1  N   UNL     1       7.579  -2.479  24.548  0.00  0.00    +0.000 NA
ATOM      2  C   UNL     1       8.736  -1.929  25.162  0.00  0.00    +0.000 C 
ATOM      3  C   UNL     1       8.641  -0.508  25.593  0.00  0.00    +0.000 C 
ATOM      4  N   UNL     1       7.289   0.033  25.605  0.00  0.00    +0.000 N 
ATOM      5  C   UNL     1       7.149   1.234  26.247  0.00  0.00    +0.000 C 
ATOM      6  O   UNL     1       7.284   1.360  27.419  0.00  0.00    +0.000 OA
ATOM      7  C   UNL     1       6.150  -0.841  25.704  0.00  0.00    +0.000 C 
ATOM      8  C   UNL     1       6.462  -2.291  25.402  0.00  0.00    +0.000 C 
ENDROOT
BRANCH   5   9
ATOM      9  C   UNL     1       7.782   2.247  25.547  0.00  0.00    +0.000 C 
ATOM     10  O   UNL     1       7.655   3.268  26.218  0.00  0.00    +0.000 OA
ATOM     11  N   UNL     1       7.335   2.227  24.278  0.00  0.00    +0.000 N 
ATOM     12  H   UNL     1       6.428   1.822  24.324  0.00  0.00    +0.000 HD
BRANCH  11  13
ATOM     13  C   UNL     1       7.763   2.979  23.194  0.00  0.00    +0.000 C 
ATOM     14  C   UNL     1       8.914   3.917  23.389  0.00  0.00    +0.000 C 
BRANCH  13  15
ATOM     15  C   UNL     1       7.824   2.246  21.889  0.00  0.00    +0.000 A 
ATOM     16  C   UNL     1       9.273   1.759  21.745  0.00  0.00    +0.000 A 
ATOM     17  C   UNL     1       9.657   0.327  21.589  0.00  0.00    +0.000 A 
ATOM     18  C   UNL     1       8.424  -0.489  21.574  0.00  0.00    +0.000 A 
ATOM     19  C   UNL     1       7.074  -0.276  21.669  0.00  0.00    +0.000 A 
ATOM     20  C   UNL     1       6.544  -0.828  20.534  0.00  0.00    +0.000 A 
ATOM     21  C   UNL     1       6.057  -0.872  19.234  0.00  0.00    +0.000 A 
ATOM     22  C   UNL     1       5.910   0.669  19.197  0.00  0.00    +0.000 A 
ATOM     23  C   UNL     1       6.331   1.606  20.035  0.00  0.00    +0.000 A 
ATOM     24  C   UNL     1       6.862   1.291  21.360  0.00  0.00    +0.000 A 
ENDBRANCH  13  15
ENDBRANCH  11  13
ENDBRANCH   5   9
BRANCH   1  25
ATOM     25  S   UNL     1       7.761  -3.956  24.019  0.00  0.00    +0.000 S 
ATOM     26  O   UNL     1       7.592  -3.961  22.514  0.00  0.00    +0.000 OA
ATOM     27  O   UNL     1       9.108  -4.482  24.296  0.00  0.00    +0.000 OA
BRANCH  25  32
ATOM     28  C   UNL     1       4.350  -5.047  26.278  0.00  0.00    +0.000 A 
ATOM     29  C   UNL     1       5.690  -5.580  26.736  0.00  0.00    +0.000 A 
ATOM     30  C   UNL     1       6.889  -5.671  25.863  0.00  0.00    +0.000 A 
ATOM     31  C   UNL     1       8.029  -5.143  26.554  0.00  0.00    +0.000 C 
ATOM     32  C   UNL     1       6.613  -5.270  24.458  0.00  0.00    +0.000 A 
ATOM     33  C   UNL     1       5.266  -5.182  23.823  0.00  0.00    +0.000 A 
ATOM     34  C   UNL     1       4.106  -5.184  24.836  0.00  0.00    +0.000 A 
ATOM     35  C   UNL     1       2.963  -6.204  24.488  0.00  0.00    +0.000 C 
ENDBRANCH  25  32
ENDBRANCH   1  25
TORSDOF 5
ENDMDL
MODEL 6
REMARK VINA RESULT:      -7.6      2.521      4.524
REMARK  Name = 
REMARK  8 active torsions:
REMARK  status: ('A' for Active; 'I' for Inactive)
REMARK    1  A    between atoms: C_5  and  C_6
REMARK    2  A    between atoms: C_10  and  S_11
REMARK    3  A    between atoms: S_11  and  N_14
REMARK    4  A    between atoms: C_22  and  C_24
REMARK    5  A    between atoms: N_26  and  C_28
REMARK    6  A    between atoms: C_28  and  C_30
REMARK    7  A    between atoms: C_28  and  C_47
REMARK    8  A    between atoms: C_59  and  C_60
REMARK                            x       y       z     vdW  Elec       q    Type
REMARK                         _______ _______ _______ _____ _____    ______ ____
ROOT
ATOM      1  N   UNL     1       6.650  -4.270  25.831  0.00  0.00    +0.000 NA
ATOM      2  C   UNL     1       7.038  -4.870  24.605  0.00  0.00    +0.000 C 
ATOM      3  C   UNL     1       7.906  -4.050  23.715  0.00  0.00    +0.000 C 
ATOM      4  N   UNL     1       8.484  -2.874  24.349  0.00  0.00    +0.000 N 
ATOM      5  C   UNL     1       9.485  -2.264  23.640  0.00  0.00    +0.000 C 
ATOM      6  O   UNL     1      10.543  -2.769  23.453  0.00  0.00    +0.000 OA
ATOM      7  C   UNL     1       8.631  -2.809  25.779  0.00  0.00    +0.000 C 
ATOM      8  C   UNL     1       7.807  -3.834  26.527  0.00  0.00    +0.000 C 
ENDROOT
BRANCH   5   9
ATOM      9  C   UNL     1       8.990  -1.671  22.492  0.00  0.00    +0.000 C 
ATOM     10  O   UNL     1       9.731  -2.011  21.574  0.00  0.00    +0.000 OA
ATOM     11  N   UNL     1       8.800  -0.362  22.741  0.00  0.00    +0.000 N 
ATOM     12  H   UNL     1       9.441  -0.136  23.467  0.00  0.00    +0.000 HD
BRANCH  11  13
ATOM     13  C   UNL     1       8.219   0.602  21.930  0.00  0.00    +0.000 C 
ATOM     14  C   UNL     1       7.416   0.148  20.750  0.00  0.00    +0.000 C 
BRANCH  13  15
ATOM     15  C   UNL     1       7.593   1.755  22.653  0.00  0.00    +0.000 A 
ATOM     16  C   UNL     1       6.751   1.142  23.780  0.00  0.00    +0.000 A 
ATOM     17  C   UNL     1       6.947   1.450  25.225  0.00  0.00    +0.000 A 
ATOM     18  C   UNL     1       8.041   2.436  25.350  0.00  0.00    +0.000 A 
ATOM     19  C   UNL     1       8.892   3.108  24.511  0.00  0.00    +0.000 A 
ATOM     20  C   UNL     1       8.689   4.434  24.784  0.00  0.00    +0.000 A 
ATOM     21  C   UNL     1       8.156   5.708  24.640  0.00  0.00    +0.000 A 
ATOM     22  C   UNL     1       7.639   5.371  23.220  0.00  0.00    +0.000 A 
ATOM     23  C   UNL     1       7.566   4.219  22.568  0.00  0.00    +0.000 A 
ATOM     24  C   UNL     1       8.225   3.005  23.049  0.00  0.00    +0.000 A 
ENDBRANCH  13  15
ENDBRANCH  11  13
ENDBRANCH   5   9
BRANCH   1  25
ATOM     25  S   UNL     1       5.651  -5.137  26.694  0.00  0.00    +0.000 S 
ATOM     26  O   UNL     1       6.242  -6.517  26.888  0.00  0.00    +0.000 OA
ATOM     27  O   UNL     1       5.444  -4.571  28.037  0.00  0.00    +0.000 OA
BRANCH  25  32
ATOM     28  C   UNL     1       3.196  -5.745  23.297  0.00  0.00    +0.000 A 
ATOM     29  C   UNL     1       2.934  -4.513  24.136  0.00  0.00    +0.000 A 
ATOM     30  C   UNL     1       3.372  -4.362  25.548  0.00  0.00    +0.000 A 
ATOM     31  C   UNL     1       3.994  -3.082  25.725  0.00  0.00    +0.000 C 
ATOM     32  C   UNL     1       4.018  -5.588  26.087  0.00  0.00    +0.000 A 
ATOM     33  C   UNL     1       3.905  -6.960  25.512  0.00  0.00    +0.000 A 
ATOM     34  C   UNL     1       3.356  -6.982  24.073  0.00  0.00    +0.000 A 
ATOM     35  C   UNL     1       2.190  -8.013  23.856  0.00  0.00    +0.000 C 
ENDBRANCH  25  32
ENDBRANCH   1  25
TORSDOF 5
ENDMDL
MODEL 7
REMARK VINA RESULT:      -7.6      1.495      2.159
REMARK  Name = 
REMARK  8 active torsions:
REMARK  status: ('A' for Active; 'I' for Inactive)
REMARK    1  A    between atoms: C_5  and  C_6
REMARK    2  A    between atoms: C_10  and  S_11
REMARK    3  A    between atoms: S_11  and  N_14
REMARK    4  A    between atoms: C_22  and  C_24
REMARK    5  A    between atoms: N_26  and  C_28
REMARK    6  A    between atoms: C_28  and  C_30
REMARK    7  A    between atoms: C_28  and  C_47
REMARK    8  A    between atoms: C_59  and  C_60
REMARK                            x       y       z     vdW  Elec       q    Type
REMARK                         _______ _______ _______ _____ _____    ______ ____
ROOT
ATOM      1  N   UNL     1       5.829  -1.069  25.872  0.00  0.00    +0.000 NA
ATOM      2  C   UNL     1       6.892  -0.652  26.715  0.00  0.00    +0.000 C 
ATOM      3  C   UNL     1       7.451   0.702  26.451  0.00  0.00    +0.000 C 
ATOM      4  N   UNL     1       6.640   1.531  25.571  0.00  0.00    +0.000 N 
ATOM      5  C   UNL     1       6.990   2.855  25.532  0.00  0.00    +0.000 C 
ATOM      6  O   UNL     1       6.858   3.585  26.458  0.00  0.00    +0.000 OA
ATOM      7  C   UNL     1       5.233   1.275  25.414  0.00  0.00    +0.000 C 
ATOM      8  C   UNL     1       4.801  -0.092  25.897  0.00  0.00    +0.000 C 
ENDROOT
BRANCH   5   9
ATOM      9  C   UNL     1       8.219   3.024  24.918  0.00  0.00    +0.000 C 
ATOM     10  O   UNL     1       8.577   4.173  25.161  0.00  0.00    +0.000 OA
ATOM     11  N   UNL     1       8.112   2.619  23.639  0.00  0.00    +0.000 N 
ATOM     12  H   UNL     1       7.152   2.734  23.406  0.00  0.00    +0.000 HD
BRANCH  11  13
ATOM     13  C   UNL     1       9.105   2.501  22.679  0.00  0.00    +0.000 C 
ATOM     14  C   UNL     1      10.534   2.528  23.126  0.00  0.00    +0.000 C 
BRANCH  13  15
ATOM     15  C   UNL     1       8.848   1.481  21.612  0.00  0.00    +0.000 A 
ATOM     16  C   UNL     1       9.994   0.466  21.712  0.00  0.00    +0.000 A 
ATOM     17  C   UNL     1       9.795  -0.991  21.955  0.00  0.00    +0.000 A 
ATOM     18  C   UNL     1       8.344  -1.256  22.050  0.00  0.00    +0.000 A 
ATOM     19  C   UNL     1       7.182  -0.533  21.980  0.00  0.00    +0.000 A 
ATOM     20  C   UNL     1       6.453  -1.125  20.983  0.00  0.00    +0.000 A 
ATOM     21  C   UNL     1       5.955  -1.325  19.702  0.00  0.00    +0.000 A 
ATOM     22  C   UNL     1       6.409   0.088  19.263  0.00  0.00    +0.000 A 
ATOM     23  C   UNL     1       7.179   0.984  19.867  0.00  0.00    +0.000 A 
ATOM     24  C   UNL     1       7.580   0.855  21.267  0.00  0.00    +0.000 A 
ENDBRANCH  13  15
ENDBRANCH  11  13
ENDBRANCH   5   9
BRANCH   1  25
ATOM     25  S   UNL     1       5.338  -2.549  26.126  0.00  0.00    +0.000 S 
ATOM     26  O   UNL     1       5.205  -2.772  27.617  0.00  0.00    +0.000 OA
ATOM     27  O   UNL     1       4.011  -2.800  25.539  0.00  0.00    +0.000 OA
BRANCH  25  32
ATOM     28  C   UNL     1       8.813  -3.931  24.139  0.00  0.00    +0.000 A 
ATOM     29  C   UNL     1       7.475  -4.241  23.503  0.00  0.00    +0.000 A 
ATOM     30  C   UNL     1       6.184  -4.230  24.239  0.00  0.00    +0.000 A 
ATOM     31  C   UNL     1       5.206  -3.503  23.484  0.00  0.00    +0.000 C 
ATOM     32  C   UNL     1       6.350  -3.972  25.694  0.00  0.00    +0.000 A 
ATOM     33  C   UNL     1       7.618  -4.115  26.468  0.00  0.00    +0.000 A 
ATOM     34  C   UNL     1       8.874  -4.203  25.582  0.00  0.00    +0.000 A 
ATOM     35  C   UNL     1       9.830  -5.392  25.954  0.00  0.00    +0.000 C 
ENDBRANCH  25  32
ENDBRANCH   1  25
TORSDOF 5
ENDMDL
MODEL 8
REMARK VINA RESULT:      -7.5      2.284      4.732
REMARK  Name = 
REMARK  8 active torsions:
REMARK  status: ('A' for Active; 'I' for Inactive)
REMARK    1  A    between atoms: C_5  and  C_6
REMARK    2  A    between atoms: C_10  and  S_11
REMARK    3  A    between atoms: S_11  and  N_14
REMARK    4  A    between atoms: C_22  and  C_24
REMARK    5  A    between atoms: N_26  and  C_28
REMARK    6  A    between atoms: C_28  and  C_30
REMARK    7  A    between atoms: C_28  and  C_47
REMARK    8  A    between atoms: C_59  and  C_60
REMARK                            x       y       z     vdW  Elec       q    Type
REMARK                         _______ _______ _______ _____ _____    ______ ____
ROOT
ATOM      1  N   UNL     1       8.272  -2.859  23.546  0.00  0.00    +0.000 NA
ATOM      2  C   UNL     1       7.672  -2.177  22.455  0.00  0.00    +0.000 C 
ATOM      3  C   UNL     1       7.985  -0.727  22.331  0.00  0.00    +0.000 C 
ATOM      4  N   UNL     1       9.094  -0.274  23.157  0.00  0.00    +0.000 N 
ATOM      5  C   UNL     1       9.567   0.977  22.861  0.00  0.00    +0.000 C 
ATOM      6  O   UNL     1      10.127   1.232  21.847  0.00  0.00    +0.000 OA
ATOM      7  C   UNL     1      10.091  -1.202  23.620  0.00  0.00    +0.000 C 
ATOM      8  C   UNL     1       9.675  -2.653  23.512  0.00  0.00    +0.000 C 
ENDROOT
BRANCH   5   9
ATOM      9  C   UNL     1       8.639   1.949  23.192  0.00  0.00    +0.000 C 
ATOM     10  O   UNL     1       8.422   2.590  22.167  0.00  0.00    +0.000 OA
ATOM     11  N   UNL     1       9.071   2.588  24.295  0.00  0.00    +0.000 N 
ATOM     12  H   UNL     1      10.060   2.490  24.286  0.00  0.00    +0.000 HD
BRANCH  11  13
ATOM     13  C   UNL     1       8.422   3.554  25.050  0.00  0.00    +0.000 C 
ATOM     14  C   UNL     1       8.236   4.916  24.454  0.00  0.00    +0.000 C 
BRANCH  13  15
ATOM     15  C   UNL     1       7.217   3.078  25.802  0.00  0.00    +0.000 A 
ATOM     16  C   UNL     1       6.021   3.296  24.865  0.00  0.00    +0.000 A 
ATOM     17  C   UNL     1       5.109   2.206  24.415  0.00  0.00    +0.000 A 
ATOM     18  C   UNL     1       5.549   0.941  25.039  0.00  0.00    +0.000 A 
ATOM     19  C   UNL     1       6.543   0.528  25.887  0.00  0.00    +0.000 A 
ATOM     20  C   UNL     1       5.893  -0.065  26.937  0.00  0.00    +0.000 A 
ATOM     21  C   UNL     1       5.307  -0.167  28.192  0.00  0.00    +0.000 A 
ATOM     22  C   UNL     1       5.984   1.146  28.656  0.00  0.00    +0.000 A 
ATOM     23  C   UNL     1       6.653   2.070  27.980  0.00  0.00    +0.000 A 
ATOM     24  C   UNL     1       7.087   1.867  26.597  0.00  0.00    +0.000 A 
ENDBRANCH  13  15
ENDBRANCH  11  13
ENDBRANCH   5   9
BRANCH   1  25
ATOM     25  S   UNL     1       7.832  -4.369  23.694  0.00  0.00    +0.000 S 
ATOM     26  O   UNL     1       7.532  -4.928  22.319  0.00  0.00    +0.000 OA
ATOM     27  O   UNL     1       8.900  -5.204  24.268  0.00  0.00    +0.000 OA
BRANCH  25  32
ATOM     28  C   UNL     1       4.043  -3.107  25.104  0.00  0.00    +0.000 A 
ATOM     29  C   UNL     1       5.124  -3.354  26.133  0.00  0.00    +0.000 A 
ATOM     30  C   UNL     1       6.329  -4.189  25.887  0.00  0.00    +0.000 A 
ATOM     31  C   UNL     1       7.497  -3.495  26.346  0.00  0.00    +0.000 C 
ATOM     32  C   UNL     1       6.320  -4.838  24.549  0.00  0.00    +0.000 A 
ATOM     33  C   UNL     1       5.124  -5.027  23.678  0.00  0.00    +0.000 A 
ATOM     34  C   UNL     1       3.915  -4.167  24.094  0.00  0.00    +0.000 A 
ATOM     35  C   UNL     1       2.571  -4.973  24.199  0.00  0.00    +0.000 C 
ENDBRANCH  25  32
ENDBRANCH   1  25
TORSDOF 5
ENDMDL
MODEL 9
REMARK VINA RESULT:      -7.3      1.595      2.444
REMARK  Name = 
REMARK  8 active torsions:
REMARK  status: ('A' for Active; 'I' for Inactive)
REMARK    1  A    between atoms: C_5  and  C_6
REMARK    2  A    between atoms: C_10  and  S_11
REMARK    3  A    between atoms: S_11  and  N_14
REMARK    4  A    between atoms: C_22  and  C_24
REMARK    5  A    between atoms: N_26  and  C_28
REMARK    6  A    between atoms: C_28  and  C_30
REMARK    7  A    between atoms: C_28  and  C_47
REMARK    8  A    between atoms: C_59  and  C_60
REMARK                            x       y       z     vdW  Elec       q    Type
REMARK                         _______ _______ _______ _____ _____    ______ ____
ROOT
ATOM      1  N   UNL     1       6.755  -2.538  26.465  0.00  0.00    +0.000 NA
ATOM      2  C   UNL     1       7.729  -1.601  26.897  0.00  0.00    +0.000 C 
ATOM      3  C   UNL     1       7.400  -0.164  26.687  0.00  0.00    +0.000 C 
ATOM      4  N   UNL     1       6.009   0.096  26.349  0.00  0.00    +0.000 N 
ATOM      5  C   UNL     1       5.629   1.410  26.418  0.00  0.00    +0.000 C 
ATOM      6  O   UNL     1       5.566   2.012  27.438  0.00  0.00    +0.000 OA
ATOM      7  C   UNL     1       4.980  -0.848  26.699  0.00  0.00    +0.000 C 
ATOM      8  C   UNL     1       5.505  -2.222  27.056  0.00  0.00    +0.000 C 
ENDROOT
BRANCH   5   9
ATOM      9  C   UNL     1       6.237   2.154  25.421  0.00  0.00    +0.000 C 
ATOM     10  O   UNL     1       6.029   3.334  25.688  0.00  0.00    +0.000 OA
ATOM     11  N   UNL     1       5.846   1.664  24.230  0.00  0.00    +0.000 N 
ATOM     12  H   UNL     1       4.961   1.243  24.396  0.00  0.00    +0.000 HD
BRANCH  11  13
ATOM     13  C   UNL     1       6.280   2.017  22.961  0.00  0.00    +0.000 C 
ATOM     14  C   UNL     1       6.439   3.472  22.642  0.00  0.00    +0.000 C 
BRANCH  13  15
ATOM     15  C   UNL     1       7.387   1.174  22.404  0.00  0.00    +0.000 A 
ATOM     16  C   UNL     1       8.406   2.155  21.807  0.00  0.00    +0.000 A 
ATOM     17  C   UNL     1       9.832   2.231  22.232  0.00  0.00    +0.000 A 
ATOM     18  C   UNL     1      10.066   1.208  23.272  0.00  0.00    +0.000 A 
ATOM     19  C   UNL     1       9.336   0.249  23.924  0.00  0.00    +0.000 A 
ATOM     20  C   UNL     1      10.003  -0.925  23.696  0.00  0.00    +0.000 A 
ATOM     21  C   UNL     1      10.308  -2.128  23.073  0.00  0.00    +0.000 A 
ATOM     22  C   UNL     1       8.946  -2.137  22.338  0.00  0.00    +0.000 A 
ATOM     23  C   UNL     1       8.012  -1.203  22.221  0.00  0.00    +0.000 A 
ATOM     24  C   UNL     1       8.022   0.020  23.022  0.00  0.00    +0.000 A 
ENDBRANCH  13  15
ENDBRANCH  11  13
ENDBRANCH   5   9
BRANCH   1  25
ATOM     25  S   UNL     1       7.191  -4.049  26.617  0.00  0.00    +0.000 S 
ATOM     26  O   UNL     1       8.702  -4.119  26.676  0.00  0.00    +0.000 OA
ATOM     27  O   UNL     1       6.688  -4.648  27.864  0.00  0.00    +0.000 OA
BRANCH  25  32
ATOM     28  C   UNL     1       5.168  -4.901  22.995  0.00  0.00    +0.000 A 
ATOM     29  C   UNL     1       4.672  -5.586  24.250  0.00  0.00    +0.000 A 
ATOM     30  C   UNL     1       5.487  -5.755  25.481  0.00  0.00    +0.000 A 
ATOM     31  C   UNL     1       4.712  -5.378  26.626  0.00  0.00    +0.000 C 
ATOM     32  C   UNL     1       6.881  -5.261  25.323  0.00  0.00    +0.000 A 
ATOM     33  C   UNL     1       7.577  -5.008  24.028  0.00  0.00    +0.000 A 
ATOM     34  C   UNL     1       6.626  -4.942  22.819  0.00  0.00    +0.000 A 
ATOM     35  C   UNL     1       7.085  -5.825  21.603  0.00  0.00    +0.000 C 
ENDBRANCH  25  32
ENDBRANCH   1  25
TORSDOF 5
ENDMDL
