MODEL 1
REMARK VINA RESULT:      -8.7      0.000      0.000
REMARK  Name = 
REMARK  8 active torsions:
REMARK  status: ('A' for Active; 'I' for Inactive)
REMARK    1  A    between atoms: C_8  and  C_9
REMARK    2  A    between atoms: C_9  and  C_12
REMARK    3  A    between atoms: C_12  and  N_15
REMARK    4  A    between atoms: C_17  and  C_19
REMARK    5  A    between atoms: C_22  and  N_23
REMARK    6  A    between atoms: C_30  and  C_31
REMARK    7  A    between atoms: N_40  and  C_41
REMARK    8  A    between atoms: C_41  and  C_44
REMARK                            x       y       z     vdW  Elec       q    Type
REMARK                         _______ _______ _______ _____ _____    ______ ____
ROOT
ATOM      1  C   UNL     1       9.698   0.808  24.513  0.00  0.00    +0.000 A 
ATOM      2  C   UNL     1      10.804   1.848  24.218  0.00  0.00    +0.000 A 
ATOM      3  C   UNL     1      10.668   3.255  23.836  0.00  0.00    +0.000 A 
ATOM      4  C   UNL     1       9.193   3.541  23.925  0.00  0.00    +0.000 A 
ATOM      5  C   UNL     1       7.980   2.865  24.137  0.00  0.00    +0.000 A 
ATOM      6  C   UNL     1       8.389   1.418  24.607  0.00  0.00    +0.000 A 
ENDROOT
BRANCH   6   7
ATOM      7  C   UNL     1       7.800   1.314  25.934  0.00  0.00    +0.000 C 
ATOM      8  O   UNL     1       7.432   2.314  26.506  0.00  0.00    +0.000 OA
ATOM      9  N   UNL     1       7.358   0.098  26.211  0.00  0.00    +0.000 N 
ATOM     10  C   UNL     1       8.210  -0.919  26.823  0.00  0.00    +0.000 C 
ATOM     11  C   UNL     1       7.981  -2.323  26.359  0.00  0.00    +0.000 C 
ATOM     12  N   UNL     1       7.271  -2.615  25.201  0.00  0.00    +0.000 NA
ATOM     13  C   UNL     1       6.880  -1.449  24.495  0.00  0.00    +0.000 C 
ATOM     14  C   UNL     1       6.214  -0.465  25.476  0.00  0.00    +0.000 C 
BRANCH  12  15
ATOM     15  C   UNL     1       7.856  -3.545  24.349  0.00  0.00    +0.000 C 
BRANCH  15  16
ATOM     16  C   UNL     1       7.100  -4.905  24.428  0.00  0.00    +0.000 A 
ATOM     17  C   UNL     1       7.478  -5.520  23.083  0.00  0.00    +0.000 A 
ATOM     18  C   UNL     1       6.610  -5.742  21.879  0.00  0.00    +0.000 A 
ATOM     19  C   UNL     1       5.233  -5.427  22.362  0.00  0.00    +0.000 A 
ATOM     20  C   UNL     1       4.525  -5.091  23.491  0.00  0.00    +0.000 A 
ATOM     21  C   UNL     1       3.975  -6.367  23.823  0.00  0.00    +0.000 A 
ATOM     22  C   UNL     1       3.598  -7.358  24.697  0.00  0.00    +0.000 A 
ATOM     23  C   UNL     1       4.618  -6.899  25.753  0.00  0.00    +0.000 A 
ATOM     24  C   UNL     1       5.331  -5.785  25.822  0.00  0.00    +0.000 A 
ATOM     25  C   UNL     1       5.641  -4.976  24.627  0.00  0.00    +0.000 A 
ENDBRANCH  15  16
ENDBRANCH  12  15
ENDBRANCH   6   7
BRANCH   1  28
ATOM     26  N   UNL     1       9.489   0.122  22.325  0.00  0.00    +0.000 N 
ATOM     27  H   UNL     1       8.813   0.784  22.356  0.00  0.00    +0.000 HD
ATOM     28  C   UNL     1      10.098  -0.072  23.481  0.00  0.00    +0.000 C 
ATOM     29  O   UNL     1      10.306  -1.255  23.845  0.00  0.00    +0.000 OA
BRANCH  26  30
ATOM     30  C   UNL     1       9.411  -0.872  21.279  0.00  0.00    +0.000 C 
BRANCH  30  31
ATOM     31  C   UNL     1       7.976  -0.903  20.724  0.00  0.00    +0.000 C 
BRANCH  31  36
ATOM     32  C   UNL     1       5.866   0.545  18.078  0.00  0.00    +0.000 A 
ATOM     33  N   UNL     1       5.057   1.502  18.871  0.00  0.00    +0.000 NA
ATOM     34  C   UNL     1       5.528   1.573  20.065  0.00  0.00    +0.000 A 
ATOM     35  C   UNL     1       6.784   1.232  20.650  0.00  0.00    +0.000 A 
ATOM     36  C   UNL     1       7.775   0.461  20.057  0.00  0.00    +0.000 A 
ATOM     37  C   UNL     1       7.162   0.299  18.652  0.00  0.00    +0.000 A 
ENDBRANCH  31  36
ENDBRANCH  30  31
ENDBRANCH  26  30
ENDBRANCH   1  28
BRANCH   3  38
ATOM     38  N   UNL     1      10.806   3.225  22.470  0.00  0.00    +0.000 N 
ATOM     39  H   UNL     1      11.610   3.691  22.224  0.00  0.00    +0.000 HD
ATOM     40  H   UNL     1       9.987   3.545  22.086  0.00  0.00    +0.000 HD
ENDBRANCH   3  38
TORSDOF 8
ENDMDL
MODEL 2
REMARK VINA RESULT:      -8.3      2.038      5.653
REMARK  Name = 
REMARK  8 active torsions:
REMARK  status: ('A' for Active; 'I' for Inactive)
REMARK    1  A    between atoms: C_8  and  C_9
REMARK    2  A    between atoms: C_9  and  C_12
REMARK    3  A    between atoms: C_12  and  N_15
REMARK    4  A    between atoms: C_17  and  C_19
REMARK    5  A    between atoms: C_22  and  N_23
REMARK    6  A    between atoms: C_30  and  C_31
REMARK    7  A    between atoms: N_40  and  C_41
REMARK    8  A    between atoms: C_41  and  C_44
REMARK                            x       y       z     vdW  Elec       q    Type
REMARK                         _______ _______ _______ _____ _____    ______ ____
ROOT
ATOM      1  C   UNL     1       6.945   1.630  24.628  0.00  0.00    +0.000 A 
ATOM      2  C   UNL     1       6.204   2.335  25.790  0.00  0.00    +0.000 A 
ATOM      3  C   UNL     1       6.593   3.529  26.542  0.00  0.00    +0.000 A 
ATOM      4  C   UNL     1       7.828   4.039  25.849  0.00  0.00    +0.000 A 
ATOM      5  C   UNL     1       8.724   3.660  24.835  0.00  0.00    +0.000 A 
ATOM      6  C   UNL     1       8.053   2.419  24.133  0.00  0.00    +0.000 A 
ENDROOT
BRANCH   6   7
ATOM      7  C   UNL     1       7.874   2.862  22.759  0.00  0.00    +0.000 C 
ATOM      8  O   UNL     1       7.676   4.033  22.528  0.00  0.00    +0.000 OA
ATOM      9  N   UNL     1       8.346   2.003  21.871  0.00  0.00    +0.000 N 
ATOM     10  C   UNL     1       7.531   0.921  21.325  0.00  0.00    +0.000 C 
ATOM     11  C   UNL     1       8.250  -0.364  21.060  0.00  0.00    +0.000 C 
ATOM     12  N   UNL     1       9.501  -0.640  21.600  0.00  0.00    +0.000 NA
ATOM     13  C   UNL     1       9.952   0.383  22.474  0.00  0.00    +0.000 C 
ATOM     14  C   UNL     1       9.793   1.748  21.777  0.00  0.00    +0.000 C 
BRANCH  12  15
ATOM     15  C   UNL     1       9.649  -1.896  22.178  0.00  0.00    +0.000 C 
BRANCH  15  16
ATOM     16  C   UNL     1       8.326  -2.331  22.875  0.00  0.00    +0.000 A 
ATOM     17  C   UNL     1       8.822  -2.588  24.295  0.00  0.00    +0.000 A 
ATOM     18  C   UNL     1       8.977  -3.899  25.009  0.00  0.00    +0.000 A 
ATOM     19  C   UNL     1       8.329  -4.887  24.096  0.00  0.00    +0.000 A 
ATOM     20  C   UNL     1       7.618  -4.984  22.924  0.00  0.00    +0.000 A 
ATOM     21  C   UNL     1       6.298  -5.129  23.452  0.00  0.00    +0.000 A 
ATOM     22  C   UNL     1       4.944  -4.893  23.469  0.00  0.00    +0.000 A 
ATOM     23  C   UNL     1       5.105  -3.556  22.727  0.00  0.00    +0.000 A 
ATOM     24  C   UNL     1       6.153  -3.053  22.094  0.00  0.00    +0.000 A 
ATOM     25  C   UNL     1       7.533  -3.479  22.398  0.00  0.00    +0.000 A 
ENDBRANCH  15  16
ENDBRANCH  12  15
ENDBRANCH   6   7
BRANCH   1  28
ATOM     26  N   UNL     1       5.943  -0.124  25.731  0.00  0.00    +0.000 N 
ATOM     27  H   UNL     1       5.187   0.425  25.574  0.00  0.00    +0.000 HD
ATOM     28  C   UNL     1       7.081   0.402  25.315  0.00  0.00    +0.000 C 
ATOM     29  O   UNL     1       8.076   0.328  26.075  0.00  0.00    +0.000 OA
BRANCH  26  30
ATOM     30  C   UNL     1       5.849  -1.113  26.782  0.00  0.00    +0.000 C 
BRANCH  30  31
ATOM     31  C   UNL     1       5.546  -2.484  26.153  0.00  0.00    +0.000 C 
BRANCH  31  36
ATOM     32  C   UNL     1       4.197  -5.845  26.813  0.00  0.00    +0.000 A 
ATOM     33  N   UNL     1       5.450  -6.588  27.089  0.00  0.00    +0.000 NA
ATOM     34  C   UNL     1       6.430  -5.761  27.170  0.00  0.00    +0.000 A 
ATOM     35  C   UNL     1       6.515  -4.355  27.396  0.00  0.00    +0.000 A 
ATOM     36  C   UNL     1       5.458  -3.456  27.333  0.00  0.00    +0.000 A 
ATOM     37  C   UNL     1       4.293  -4.447  27.141  0.00  0.00    +0.000 A 
ENDBRANCH  31  36
ENDBRANCH  30  31
ENDBRANCH  26  30
ENDBRANCH   1  28
BRANCH   3  38
ATOM     38  N   UNL     1       7.172   3.014  27.675  0.00  0.00    +0.000 N 
ATOM     39  H   UNL     1       6.484   2.805  28.313  0.00  0.00    +0.000 HD
ATOM     40  H   UNL     1       7.854   3.625  27.960  0.00  0.00    +0.000 HD
ENDBRANCH   3  38
TORSDOF 8
ENDMDL
MODEL 3
REMARK VINA RESULT:      -8.1      2.731      6.856
REMARK  Name = 
REMARK  8 active torsions:
REMARK  status: ('A' for Active; 'I' for Inactive)
REMARK    1  A    between atoms: C_8  and  C_9
REMARK    2  A    between atoms: C_9  and  C_12
REMARK    3  A    between atoms: C_12  and  N_15
REMARK    4  A    between atoms: C_17  and  C_19
REMARK    5  A    between atoms: C_22  and  N_23
REMARK    6  A    between atoms: C_30  and  C_31
REMARK    7  A    between atoms: N_40  and  C_41
REMARK    8  A    between atoms: C_41  and  C_44
REMARK                            x       y       z     vdW  Elec       q    Type
REMARK                         _______ _______ _______ _____ _____    ______ ____
ROOT
ATOM      1  C   UNL     1       5.925  -1.785  26.977  0.00  0.00    +0.000 A 
ATOM      2  C   UNL     1       4.979  -1.159  28.029  0.00  0.00    +0.000 A 
ATOM      3  C   UNL     1       3.721  -1.682  28.564  0.00  0.00    +0.000 A 
ATOM      4  C   UNL     1       3.591  -3.061  27.976  0.00  0.00    +0.000 A 
ATOM      5  C   UNL     1       4.222  -3.888  27.031  0.00  0.00    +0.000 A 
ATOM      6  C   UNL     1       5.570  -3.155  26.674  0.00  0.00    +0.000 A 
ENDROOT
BRANCH   6   7
ATOM      7  C   UNL     1       6.591  -4.114  27.068  0.00  0.00    +0.000 C 
ATOM      8  O   UNL     1       6.397  -4.842  28.014  0.00  0.00    +0.000 OA
ATOM      9  N   UNL     1       7.462  -4.369  26.105  0.00  0.00    +0.000 N 
ATOM     10  C   UNL     1       8.679  -3.580  25.926  0.00  0.00    +0.000 C 
ATOM     11  C   UNL     1       9.106  -3.357  24.510  0.00  0.00    +0.000 C 
ATOM     12  N   UNL     1       8.253  -3.574  23.434  0.00  0.00    +0.000 NA
ATOM     13  C   UNL     1       6.944  -3.936  23.844  0.00  0.00    +0.000 C 
ATOM     14  C   UNL     1       7.037  -5.071  24.882  0.00  0.00    +0.000 C 
BRANCH  12  15
ATOM     15  C   UNL     1       8.218  -2.567  22.475  0.00  0.00    +0.000 C 
BRANCH  15  16
ATOM     16  C   UNL     1       8.497  -1.183  23.133  0.00  0.00    +0.000 A 
ATOM     17  C   UNL     1       7.217  -0.433  22.772  0.00  0.00    +0.000 A 
ATOM     18  C   UNL     1       7.036   0.692  21.795  0.00  0.00    +0.000 A 
ATOM     19  C   UNL     1       8.429   1.065  21.410  0.00  0.00    +0.000 A 
ATOM     20  C   UNL     1       9.747   0.789  21.686  0.00  0.00    +0.000 A 
ATOM     21  C   UNL     1      10.055   1.897  22.533  0.00  0.00    +0.000 A 
ATOM     22  C   UNL     1      10.649   2.489  23.621  0.00  0.00    +0.000 A 
ATOM     23  C   UNL     1      10.683   1.164  24.401  0.00  0.00    +0.000 A 
ATOM     24  C   UNL     1      10.471  -0.075  23.987  0.00  0.00    +0.000 A 
ATOM     25  C   UNL     1       9.677  -0.374  22.778  0.00  0.00    +0.000 A 
ENDBRANCH  15  16
ENDBRANCH  12  15
ENDBRANCH   6   7
BRANCH   1  28
ATOM     26  N   UNL     1       6.378   0.413  26.467  0.00  0.00    +0.000 N 
ATOM     27  H   UNL     1       6.738   0.370  27.341  0.00  0.00    +0.000 HD
ATOM     28  C   UNL     1       5.805  -0.708  26.068  0.00  0.00    +0.000 C 
ATOM     29  O   UNL     1       4.696  -0.628  25.486  0.00  0.00    +0.000 OA
BRANCH  26  30
ATOM     30  C   UNL     1       6.046   1.718  25.940  0.00  0.00    +0.000 C 
BRANCH  30  31
ATOM     31  C   UNL     1       7.299   2.328  25.288  0.00  0.00    +0.000 C 
BRANCH  31  36
ATOM     32  C   UNL     1       8.993   5.550  24.743  0.00  0.00    +0.000 A 
ATOM     33  N   UNL     1       8.698   5.770  23.306  0.00  0.00    +0.000 NA
ATOM     34  C   UNL     1       7.854   4.890  22.902  0.00  0.00    +0.000 A 
ATOM     35  C   UNL     1       6.931   4.032  23.571  0.00  0.00    +0.000 A 
ATOM     36  C   UNL     1       6.908   3.766  24.935  0.00  0.00    +0.000 A 
ATOM     37  C   UNL     1       7.990   4.759  25.404  0.00  0.00    +0.000 A 
ENDBRANCH  31  36
ENDBRANCH  30  31
ENDBRANCH  26  30
ENDBRANCH   1  28
BRANCH   3  38
ATOM     38  N   UNL     1       2.768  -1.032  27.820  0.00  0.00    +0.000 N 
ATOM     39  H   UNL     1       2.012  -0.833  28.381  0.00  0.00    +0.000 HD
ATOM     40  H   UNL     1       2.597  -1.560  27.037  0.00  0.00    +0.000 HD
ENDBRANCH   3  38
TORSDOF 8
ENDMDL
MODEL 4
REMARK VINA RESULT:      -7.8      2.534      7.169
REMARK  Name = 
REMARK  8 active torsions:
REMARK  status: ('A' for Active; 'I' for Inactive)
REMARK    1  A    between atoms: C_8  and  C_9
REMARK    2  A    between atoms: C_9  and  C_12
REMARK    3  A    between atoms: C_12  and  N_15
REMARK    4  A    between atoms: C_17  and  C_19
REMARK    5  A    between atoms: C_22  and  N_23
REMARK    6  A    between atoms: C_30  and  C_31
REMARK    7  A    between atoms: N_40  and  C_41
REMARK    8  A    between atoms: C_41  and  C_44
REMARK                            x       y       z     vdW  Elec       q    Type
REMARK                         _______ _______ _______ _____ _____    ______ ____
ROOT
ATOM      1  C   UNL     1       5.332  -3.546  26.545  0.00  0.00    +0.000 A 
ATOM      2  C   UNL     1       4.721  -3.280  27.941  0.00  0.00    +0.000 A 
ATOM      3  C   UNL     1       3.435  -3.721  28.484  0.00  0.00    +0.000 A 
ATOM      4  C   UNL     1       2.862  -4.634  27.434  0.00  0.00    +0.000 A 
ATOM      5  C   UNL     1       3.129  -5.061  26.121  0.00  0.00    +0.000 A 
ATOM      6  C   UNL     1       4.579  -4.534  25.802  0.00  0.00    +0.000 A 
ENDROOT
BRANCH   6   7
ATOM      7  C   UNL     1       5.332  -5.751  25.539  0.00  0.00    +0.000 C 
ATOM      8  O   UNL     1       4.837  -6.827  25.785  0.00  0.00    +0.000 OA
ATOM      9  N   UNL     1       6.324  -5.572  24.683  0.00  0.00    +0.000 N 
ATOM     10  C   UNL     1       7.664  -5.180  25.115  0.00  0.00    +0.000 C 
ATOM     11  C   UNL     1       8.396  -4.254  24.196  0.00  0.00    +0.000 C 
ATOM     12  N   UNL     1       7.752  -3.541  23.191  0.00  0.00    +0.000 NA
ATOM     13  C   UNL     1       6.347  -3.733  23.206  0.00  0.00    +0.000 C 
ATOM     14  C   UNL     1       6.044  -5.242  23.275  0.00  0.00    +0.000 C 
BRANCH  12  15
ATOM     15  C   UNL     1       8.074  -2.191  23.103  0.00  0.00    +0.000 C 
BRANCH  15  16
ATOM     16  C   UNL     1       7.910  -1.689  21.637  0.00  0.00    +0.000 A 
ATOM     17  C   UNL     1       9.228  -0.945  21.442  0.00  0.00    +0.000 A 
ATOM     18  C   UNL     1       9.460   0.534  21.333  0.00  0.00    +0.000 A 
ATOM     19  C   UNL     1       8.086   1.110  21.239  0.00  0.00    +0.000 A 
ATOM     20  C   UNL     1       6.760   0.758  21.153  0.00  0.00    +0.000 A 
ATOM     21  C   UNL     1       6.553   0.932  19.750  0.00  0.00    +0.000 A 
ATOM     22  C   UNL     1       6.032   0.582  18.528  0.00  0.00    +0.000 A 
ATOM     23  C   UNL     1       5.928  -0.899  18.927  0.00  0.00    +0.000 A 
ATOM     24  C   UNL     1       6.042  -1.472  20.115  0.00  0.00    +0.000 A 
ATOM     25  C   UNL     1       6.779  -0.837  21.226  0.00  0.00    +0.000 A 
ENDBRANCH  15  16
ENDBRANCH  12  15
ENDBRANCH   6   7
BRANCH   1  28
ATOM     26  N   UNL     1       6.192  -1.457  26.988  0.00  0.00    +0.000 N 
ATOM     27  H   UNL     1       6.541  -1.939  27.725  0.00  0.00    +0.000 HD
ATOM     28  C   UNL     1       5.415  -2.177  26.200  0.00  0.00    +0.000 C 
ATOM     29  O   UNL     1       4.339  -1.664  25.807  0.00  0.00    +0.000 OA
BRANCH  26  30
ATOM     30  C   UNL     1       6.112  -0.018  27.103  0.00  0.00    +0.000 C 
BRANCH  30  31
ATOM     31  C   UNL     1       7.533   0.569  27.038  0.00  0.00    +0.000 C 
BRANCH  31  36
ATOM     32  C   UNL     1       9.431   2.426  24.489  0.00  0.00    +0.000 A 
ATOM     33  N   UNL     1      10.615   1.545  24.339  0.00  0.00    +0.000 NA
ATOM     34  C   UNL     1      10.419   0.451  24.984  0.00  0.00    +0.000 A 
ATOM     35  C   UNL     1       9.252  -0.205  25.478  0.00  0.00    +0.000 A 
ATOM     36  C   UNL     1       7.988   0.360  25.590  0.00  0.00    +0.000 A 
ATOM     37  C   UNL     1       8.252   1.712  24.898  0.00  0.00    +0.000 A 
ENDBRANCH  31  36
ENDBRANCH  30  31
ENDBRANCH  26  30
ENDBRANCH   1  28
BRANCH   3  38
ATOM     38  N   UNL     1       2.622  -2.630  28.296  0.00  0.00    +0.000 N 
ATOM     39  H   UNL     1       2.961  -1.892  28.811  0.00  0.00    +0.000 HD
ATOM     40  H   UNL     1       1.720  -2.903  28.475  0.00  0.00    +0.000 HD
ENDBRANCH   3  38
TORSDOF 8
ENDMDL
MODEL 5
REMARK VINA RESULT:      -7.7      1.946      2.915
REMARK  Name = 
REMARK  8 active torsions:
REMARK  status: ('A' for Active; 'I' for Inactive)
REMARK    1  A    between atoms: C_8  and  C_9
REMARK    2  A    between atoms: C_9  and  C_12
REMARK    3  A    between atoms: C_12  and  N_15
REMARK    4  A    between atoms: C_17  and  C_19
REMARK    5  A    between atoms: C_22  and  N_23
REMARK    6  A    between atoms: C_30  and  C_31
REMARK    7  A    between atoms: N_40  and  C_41
REMARK    8  A    between atoms: C_41  and  C_44
REMARK                            x       y       z     vdW  Elec       q    Type
REMARK                         _______ _______ _______ _____ _____    ______ ____
ROOT
ATOM      1  C   UNL     1       8.065   3.307  25.166  0.00  0.00    +0.000 A 
ATOM      2  C   UNL     1       8.691   4.596  24.585  0.00  0.00    +0.000 A 
ATOM      3  C   UNL     1       8.038   5.702  23.881  0.00  0.00    +0.000 A 
ATOM      4  C   UNL     1       6.566   5.397  23.959  0.00  0.00    +0.000 A 
ATOM      5  C   UNL     1       5.704   4.369  24.376  0.00  0.00    +0.000 A 
ATOM      6  C   UNL     1       6.618   3.356  25.164  0.00  0.00    +0.000 A 
ENDROOT
BRANCH   6   7
ATOM      7  C   UNL     1       6.040   3.346  26.499  0.00  0.00    +0.000 C 
ATOM      8  O   UNL     1       5.391   4.293  26.878  0.00  0.00    +0.000 OA
ATOM      9  N   UNL     1       5.947   2.131  27.015  0.00  0.00    +0.000 N 
ATOM     10  C   UNL     1       7.029   1.529  27.790  0.00  0.00    +0.000 C 
ATOM     11  C   UNL     1       7.215   0.056  27.609  0.00  0.00    +0.000 C 
ATOM     12  N   UNL     1       6.651  -0.639  26.546  0.00  0.00    +0.000 NA
ATOM     13  C   UNL     1       5.973   0.215  25.639  0.00  0.00    +0.000 C 
ATOM     14  C   UNL     1       5.028   1.141  26.428  0.00  0.00    +0.000 C 
BRANCH  12  15
ATOM     15  C   UNL     1       7.499  -1.513  25.873  0.00  0.00    +0.000 C 
BRANCH  15  16
ATOM     16  C   UNL     1       6.706  -2.750  25.359  0.00  0.00    +0.000 A 
ATOM     17  C   UNL     1       7.223  -3.833  26.301  0.00  0.00    +0.000 A 
ATOM     18  C   UNL     1       8.133  -4.986  25.992  0.00  0.00    +0.000 A 
ATOM     19  C   UNL     1       8.249  -4.967  24.504  0.00  0.00    +0.000 A 
ATOM     20  C   UNL     1       7.773  -4.331  23.382  0.00  0.00    +0.000 A 
ATOM     21  C   UNL     1       6.808  -5.290  22.948  0.00  0.00    +0.000 A 
ATOM     22  C   UNL     1       5.595  -5.670  22.427  0.00  0.00    +0.000 A 
ATOM     23  C   UNL     1       4.918  -4.370  22.894  0.00  0.00    +0.000 A 
ATOM     24  C   UNL     1       5.451  -3.248  23.351  0.00  0.00    +0.000 A 
ATOM     25  C   UNL     1       6.795  -3.208  23.960  0.00  0.00    +0.000 A 
ENDBRANCH  15  16
ENDBRANCH  12  15
ENDBRANCH   6   7
BRANCH   1  28
ATOM     26  N   UNL     1       8.308   2.166  23.182  0.00  0.00    +0.000 N 
ATOM     27  H   UNL     1       7.446   2.535  23.054  0.00  0.00    +0.000 HD
ATOM     28  C   UNL     1       8.837   2.438  24.361  0.00  0.00    +0.000 C 
ATOM     29  O   UNL     1       9.404   1.506  24.981  0.00  0.00    +0.000 OA
BRANCH  26  30
ATOM     30  C   UNL     1       8.674   1.020  22.380  0.00  0.00    +0.000 C 
BRANCH  30  31
ATOM     31  C   UNL     1       7.504   0.021  22.372  0.00  0.00    +0.000 C 
BRANCH  31  36
ATOM     32  C   UNL     1       5.644  -0.893  19.329  0.00  0.00    +0.000 A 
ATOM     33  N   UNL     1       6.501  -0.269  18.292  0.00  0.00    +0.000 NA
ATOM     34  C   UNL     1       7.589   0.151  18.831  0.00  0.00    +0.000 A 
ATOM     35  C   UNL     1       8.263  -0.151  20.052  0.00  0.00    +0.000 A 
ATOM     36  C   UNL     1       7.724  -0.845  21.128  0.00  0.00    +0.000 A 
ATOM     37  C   UNL     1       6.378  -1.268  20.508  0.00  0.00    +0.000 A 
ENDBRANCH  31  36
ENDBRANCH  30  31
ENDBRANCH  26  30
ENDBRANCH   1  28
BRANCH   3  38
ATOM     38  N   UNL     1       8.256   5.406  22.559  0.00  0.00    +0.000 N 
ATOM     39  H   UNL     1       9.194   5.494  22.367  0.00  0.00    +0.000 HD
ATOM     40  H   UNL     1       7.656   5.942  22.036  0.00  0.00    +0.000 HD
ENDBRANCH   3  38
TORSDOF 8
ENDMDL
MODEL 6
REMARK VINA RESULT:      -7.6      2.569      7.423
REMARK  Name = 
REMARK  8 active torsions:
REMARK  status: ('A' for Active; 'I' for Inactive)
REMARK    1  A    between atoms: C_8  and  C_9
REMARK    2  A    between atoms: C_9  and  C_12
REMARK    3  A    between atoms: C_12  and  N_15
REMARK    4  A    between atoms: C_17  and  C_19
REMARK    5  A    between atoms: C_22  and  N_23
REMARK    6  A    between atoms: C_30  and  C_31
REMARK    7  A    between atoms: N_40  and  C_41
REMARK    8  A    between atoms: C_41  and  C_44
REMARK                            x       y       z     vdW  Elec       q    Type
REMARK                         _______ _______ _______ _____ _____    ______ ____
ROOT
ATOM      1  C   UNL     1       6.459  -5.775  26.303  0.00  0.00    +0.000 A 
ATOM      2  C   UNL     1       6.146  -6.124  27.778  0.00  0.00    +0.000 A 
ATOM      3  C   UNL     1       4.909  -5.915  28.532  0.00  0.00    +0.000 A 
ATOM      4  C   UNL     1       3.918  -5.405  27.521  0.00  0.00    +0.000 A 
ATOM      5  C   UNL     1       3.873  -4.985  26.180  0.00  0.00    +0.000 A 
ATOM      6  C   UNL     1       5.272  -5.384  25.574  0.00  0.00    +0.000 A 
ENDROOT
BRANCH   6   7
ATOM      7  C   UNL     1       4.926  -6.306  24.502  0.00  0.00    +0.000 C 
ATOM      8  O   UNL     1       4.144  -7.204  24.713  0.00  0.00    +0.000 OA
ATOM      9  N   UNL     1       5.192  -5.825  23.299  0.00  0.00    +0.000 N 
ATOM     10  C   UNL     1       6.490  -6.014  22.655  0.00  0.00    +0.000 C 
ATOM     11  C   UNL     1       6.977  -4.868  21.825  0.00  0.00    +0.000 C 
ATOM     12  N   UNL     1       6.427  -3.595  21.922  0.00  0.00    +0.000 NA
ATOM     13  C   UNL     1       5.440  -3.507  22.937  0.00  0.00    +0.000 C 
ATOM     14  C   UNL     1       4.444  -4.670  22.775  0.00  0.00    +0.000 C 
BRANCH  12  15
ATOM     15  C   UNL     1       7.337  -2.547  22.015  0.00  0.00    +0.000 C 
BRANCH  15  16
ATOM     16  C   UNL     1       6.608  -1.180  21.855  0.00  0.00    +0.000 A 
ATOM     17  C   UNL     1       6.340  -1.174  20.352  0.00  0.00    +0.000 A 
ATOM     18  C   UNL     1       6.979  -0.326  19.292  0.00  0.00    +0.000 A 
ATOM     19  C   UNL     1       7.783   0.670  20.060  0.00  0.00    +0.000 A 
ATOM     20  C   UNL     1       8.063   1.091  21.338  0.00  0.00    +0.000 A 
ATOM     21  C   UNL     1       7.218   2.240  21.406  0.00  0.00    +0.000 A 
ATOM     22  C   UNL     1       6.343   3.092  22.037  0.00  0.00    +0.000 A 
ATOM     23  C   UNL     1       5.863   1.988  22.995  0.00  0.00    +0.000 A 
ATOM     24  C   UNL     1       6.371   0.790  23.238  0.00  0.00    +0.000 A 
ATOM     25  C   UNL     1       7.233   0.091  22.265  0.00  0.00    +0.000 A 
ENDBRANCH  15  16
ENDBRANCH  12  15
ENDBRANCH   6   7
BRANCH   1  28
ATOM     26  N   UNL     1       7.372  -3.665  26.189  0.00  0.00    +0.000 N 
ATOM     27  H   UNL     1       6.595  -3.537  25.663  0.00  0.00    +0.000 HD
ATOM     28  C   UNL     1       7.526  -4.904  26.621  0.00  0.00    +0.000 C 
ATOM     29  O   UNL     1       8.669  -5.416  26.544  0.00  0.00    +0.000 OA
BRANCH  26  30
ATOM     30  C   UNL     1       8.461  -2.730  26.020  0.00  0.00    +0.000 C 
BRANCH  30  31
ATOM     31  C   UNL     1       7.891  -1.377  25.559  0.00  0.00    +0.000 C 
BRANCH  31  36
ATOM     32  C   UNL     1      10.613   0.566  24.021  0.00  0.00    +0.000 A 
ATOM     33  N   UNL     1      10.077   1.941  24.163  0.00  0.00    +0.000 NA
ATOM     34  C   UNL     1       9.023   1.916  24.898  0.00  0.00    +0.000 A 
ATOM     35  C   UNL     1       8.500   0.977  25.836  0.00  0.00    +0.000 A 
ATOM     36  C   UNL     1       8.926  -0.336  25.997  0.00  0.00    +0.000 A 
ATOM     37  C   UNL     1      10.135  -0.329  25.040  0.00  0.00    +0.000 A 
ENDBRANCH  31  36
ENDBRANCH  30  31
ENDBRANCH  26  30
ENDBRANCH   1  28
BRANCH   3  38
ATOM     38  N   UNL     1       5.149  -4.748  29.215  0.00  0.00    +0.000 N 
ATOM     39  H   UNL     1       5.902  -4.300  28.818  0.00  0.00    +0.000 HD
ATOM     40  H   UNL     1       5.217  -4.963  30.147  0.00  0.00    +0.000 HD
ENDBRANCH   3  38
TORSDOF 8
ENDMDL
MODEL 7
REMARK VINA RESULT:      -7.4      2.023      2.936
REMARK  Name = 
REMARK  8 active torsions:
REMARK  status: ('A' for Active; 'I' for Inactive)
REMARK    1  A    between atoms: C_8  and  C_9
REMARK    2  A    between atoms: C_9  and  C_12
REMARK    3  A    between atoms: C_12  and  N_15
REMARK    4  A    between atoms: C_17  and  C_19
REMARK    5  A    between atoms: C_22  and  N_23
REMARK    6  A    between atoms: C_30  and  C_31
REMARK    7  A    between atoms: N_40  and  C_41
REMARK    8  A    between atoms: C_41  and  C_44
REMARK                            x       y       z     vdW  Elec       q    Type
REMARK                         _______ _______ _______ _____ _____    ______ ____
ROOT
ATOM      1  C   UNL     1       8.226   3.207  25.230  0.00  0.00    +0.000 A 
ATOM      2  C   UNL     1       8.938   4.512  24.800  0.00  0.00    +0.000 A 
ATOM      3  C   UNL     1       8.359   5.743  24.260  0.00  0.00    +0.000 A 
ATOM      4  C   UNL     1       6.870   5.540  24.339  0.00  0.00    +0.000 A 
ATOM      5  C   UNL     1       5.939   4.532  24.646  0.00  0.00    +0.000 A 
ATOM      6  C   UNL     1       6.788   3.362  25.273  0.00  0.00    +0.000 A 
ENDROOT
BRANCH   6   7
ATOM      7  C   UNL     1       6.235   3.223  26.612  0.00  0.00    +0.000 C 
ATOM      8  O   UNL     1       5.749   4.184  27.163  0.00  0.00    +0.000 OA
ATOM      9  N   UNL     1       5.957   1.969  26.930  0.00  0.00    +0.000 N 
ATOM     10  C   UNL     1       6.941   1.089  27.556  0.00  0.00    +0.000 C 
ATOM     11  C   UNL     1       6.889  -0.346  27.135  0.00  0.00    +0.000 C 
ATOM     12  N   UNL     1       6.207  -0.762  25.998  0.00  0.00    +0.000 NA
ATOM     13  C   UNL     1       5.660   0.323  25.266  0.00  0.00    +0.000 C 
ATOM     14  C   UNL     1       4.885   1.242  26.230  0.00  0.00    +0.000 C 
BRANCH  12  15
ATOM     15  C   UNL     1       6.897  -1.634  25.162  0.00  0.00    +0.000 C 
BRANCH  15  16
ATOM     16  C   UNL     1       6.415  -3.097  25.388  0.00  0.00    +0.000 A 
ATOM     17  C   UNL     1       7.751  -3.815  25.555  0.00  0.00    +0.000 A 
ATOM     18  C   UNL     1       8.423  -4.772  24.614  0.00  0.00    +0.000 A 
ATOM     19  C   UNL     1       7.390  -5.039  23.570  0.00  0.00    +0.000 A 
ATOM     20  C   UNL     1       6.082  -4.774  23.238  0.00  0.00    +0.000 A 
ATOM     21  C   UNL     1       5.472  -5.995  23.659  0.00  0.00    +0.000 A 
ATOM     22  C   UNL     1       4.471  -6.738  24.237  0.00  0.00    +0.000 A 
ATOM     23  C   UNL     1       4.012  -5.555  25.107  0.00  0.00    +0.000 A 
ATOM     24  C   UNL     1       4.329  -4.272  25.038  0.00  0.00    +0.000 A 
ATOM     25  C   UNL     1       5.577  -3.805  24.403  0.00  0.00    +0.000 A 
ENDBRANCH  15  16
ENDBRANCH  12  15
ENDBRANCH   6   7
BRANCH   1  28
ATOM     26  N   UNL     1       9.454   1.305  24.816  0.00  0.00    +0.000 N 
ATOM     27  H   UNL     1       9.365   1.242  25.756  0.00  0.00    +0.000 HD
ATOM     28  C   UNL     1       8.916   2.395  24.300  0.00  0.00    +0.000 C 
ATOM     29  O   UNL     1       9.572   3.023  23.434  0.00  0.00    +0.000 OA
BRANCH  26  30
ATOM     30  C   UNL     1      10.525   0.562  24.190  0.00  0.00    +0.000 C 
BRANCH  30  31
ATOM     31  C   UNL     1      10.118  -0.918  24.093  0.00  0.00    +0.000 C 
BRANCH  31  36
ATOM     32  C   UNL     1       7.491  -1.448  21.569  0.00  0.00    +0.000 A 
ATOM     33  N   UNL     1       7.711  -0.268  20.699  0.00  0.00    +0.000 NA
ATOM     34  C   UNL     1       8.795   0.328  21.050  0.00  0.00    +0.000 A 
ATOM     35  C   UNL     1       9.938  -0.074  21.804  0.00  0.00    +0.000 A 
ATOM     36  C   UNL     1      10.033  -1.214  22.593  0.00  0.00    +0.000 A 
ATOM     37  C   UNL     1       8.688  -1.879  22.240  0.00  0.00    +0.000 A 
ENDBRANCH  31  36
ENDBRANCH  30  31
ENDBRANCH  26  30
ENDBRANCH   1  28
BRANCH   3  38
ATOM     38  N   UNL     1       8.531   5.605  22.906  0.00  0.00    +0.000 N 
ATOM     39  H   UNL     1       9.320   5.082  22.740  0.00  0.00    +0.000 HD
ATOM     40  H   UNL     1       8.504   6.481  22.516  0.00  0.00    +0.000 HD
ENDBRANCH   3  38
TORSDOF 8
ENDMDL
MODEL 8
REMARK VINA RESULT:      -7.4      2.119      5.169
REMARK  Name = 
REMARK  8 active torsions:
REMARK  status: ('A' for Active; 'I' for Inactive)
REMARK    1  A    between atoms: C_8  and  C_9
REMARK    2  A    between atoms: C_9  and  C_12
REMARK    3  A    between atoms: C_12  and  N_15
REMARK    4  A    between atoms: C_17  and  C_19
REMARK    5  A    between atoms: C_22  and  N_23
REMARK    6  A    between atoms: C_30  and  C_31
REMARK    7  A    between atoms: N_40  and  C_41
REMARK    8  A    between atoms: C_41  and  C_44
REMARK                            x       y       z     vdW  Elec       q    Type
REMARK                         _______ _______ _______ _____ _____    ______ ____
ROOT
ATOM      1  C   UNL     1       7.661   0.260  20.749  0.00  0.00    +0.000 A 
ATOM      2  C   UNL     1       7.548   0.214  19.207  0.00  0.00    +0.000 A 
ATOM      3  C   UNL     1       6.488   0.738  18.344  0.00  0.00    +0.000 A 
ATOM      4  C   UNL     1       5.563   1.480  19.271  0.00  0.00    +0.000 A 
ATOM      5  C   UNL     1       5.371   1.699  20.646  0.00  0.00    +0.000 A 
ATOM      6  C   UNL     1       6.663   1.124  21.341  0.00  0.00    +0.000 A 
ENDROOT
BRANCH   6   7
ATOM      7  C   UNL     1       7.230   2.285  22.011  0.00  0.00    +0.000 C 
ATOM      8  O   UNL     1       6.871   3.395  21.695  0.00  0.00    +0.000 OA
ATOM      9  N   UNL     1       7.786   1.991  23.175  0.00  0.00    +0.000 N 
ATOM     10  C   UNL     1       9.188   1.596  23.291  0.00  0.00    +0.000 C 
ATOM     11  C   UNL     1       9.487   0.561  24.330  0.00  0.00    +0.000 C 
ATOM     12  N   UNL     1       8.494  -0.222  24.906  0.00  0.00    +0.000 NA
ATOM     13  C   UNL     1       7.216   0.018  24.337  0.00  0.00    +0.000 C 
ATOM     14  C   UNL     1       6.956   1.536  24.304  0.00  0.00    +0.000 C 
BRANCH  12  15
ATOM     15  C   UNL     1       8.762  -1.585  24.979  0.00  0.00    +0.000 C 
BRANCH  15  16
ATOM     16  C   UNL     1       8.028  -2.217  26.199  0.00  0.00    +0.000 A 
ATOM     17  C   UNL     1       9.110  -3.153  26.729  0.00  0.00    +0.000 A 
ATOM     18  C   UNL     1       9.153  -4.653  26.686  0.00  0.00    +0.000 A 
ATOM     19  C   UNL     1       7.795  -5.040  26.202  0.00  0.00    +0.000 A 
ATOM     20  C   UNL     1       6.567  -4.520  25.870  0.00  0.00    +0.000 A 
ATOM     21  C   UNL     1       5.845  -4.817  27.065  0.00  0.00    +0.000 A 
ATOM     22  C   UNL     1       4.945  -4.534  28.065  0.00  0.00    +0.000 A 
ATOM     23  C   UNL     1       5.128  -3.018  27.885  0.00  0.00    +0.000 A 
ATOM     24  C   UNL     1       5.720  -2.339  26.915  0.00  0.00    +0.000 A 
ATOM     25  C   UNL     1       6.754  -2.944  26.052  0.00  0.00    +0.000 A 
ENDBRANCH  15  16
ENDBRANCH  12  15
ENDBRANCH   6   7
BRANCH   1  28
ATOM     26  N   UNL     1       6.582  -1.672  21.382  0.00  0.00    +0.000 N 
ATOM     27  H   UNL     1       5.931  -1.031  21.630  0.00  0.00    +0.000 HD
ATOM     28  C   UNL     1       7.693  -1.145  20.898  0.00  0.00    +0.000 C 
ATOM     29  O   UNL     1       8.788  -1.610  21.297  0.00  0.00    +0.000 OA
BRANCH  26  30
ATOM     30  C   UNL     1       6.514  -2.976  22.002  0.00  0.00    +0.000 C 
BRANCH  30  31
ATOM     31  C   UNL     1       5.301  -3.017  22.948  0.00  0.00    +0.000 C 
BRANCH  31  36
ATOM     32  C   UNL     1       5.714  -6.666  23.196  0.00  0.00    +0.000 A 
ATOM     33  N   UNL     1       4.589  -7.004  24.101  0.00  0.00    +0.000 NA
ATOM     34  C   UNL     1       3.849  -5.967  24.271  0.00  0.00    +0.000 A 
ATOM     35  C   UNL     1       3.681  -4.750  23.545  0.00  0.00    +0.000 A 
ATOM     36  C   UNL     1       4.522  -4.273  22.548  0.00  0.00    +0.000 A 
ATOM     37  C   UNL     1       5.466  -5.485  22.414  0.00  0.00    +0.000 A 
ENDBRANCH  31  36
ENDBRANCH  30  31
ENDBRANCH  26  30
ENDBRANCH   1  28
BRANCH   3  38
ATOM     38  N   UNL     1       5.711  -0.366  18.094  0.00  0.00    +0.000 N 
ATOM     39  H   UNL     1       5.632  -0.487  17.143  0.00  0.00    +0.000 HD
ATOM     40  H   UNL     1       4.894  -0.267  18.585  0.00  0.00    +0.000 HD
ENDBRANCH   3  38
TORSDOF 8
ENDMDL
MODEL 9
REMARK VINA RESULT:      -7.2      1.971      3.410
REMARK  Name = 
REMARK  8 active torsions:
REMARK  status: ('A' for Active; 'I' for Inactive)
REMARK    1  A    between atoms: C_8  and  C_9
REMARK    2  A    between atoms: C_9  and  C_12
REMARK    3  A    between atoms: C_12  and  N_15
REMARK    4  A    between atoms: C_17  and  C_19
REMARK    5  A    between atoms: C_22  and  N_23
REMARK    6  A    between atoms: C_30  and  C_31
REMARK    7  A    between atoms: N_40  and  C_41
REMARK    8  A    between atoms: C_41  and  C_44
REMARK                            x       y       z     vdW  Elec       q    Type
REMARK                         _______ _______ _______ _____ _____    ______ ____
ROOT
ATOM      1  C   UNL     1       7.546   2.940  22.774  0.00  0.00    +0.000 A 
ATOM      2  C   UNL     1       7.077   4.395  23.010  0.00  0.00    +0.000 A 
ATOM      3  C   UNL     1       7.184   5.213  24.219  0.00  0.00    +0.000 A 
ATOM      4  C   UNL     1       7.994   4.384  25.180  0.00  0.00    +0.000 A 
ATOM      5  C   UNL     1       8.535   3.091  25.288  0.00  0.00    +0.000 A 
ATOM      6  C   UNL     1       8.371   2.452  23.858  0.00  0.00    +0.000 A 
ENDROOT
BRANCH   6   7
ATOM      7  C   UNL     1       9.740   2.167  23.455  0.00  0.00    +0.000 C 
ATOM      8  O   UNL     1      10.625   2.935  23.754  0.00  0.00    +0.000 OA
ATOM      9  N   UNL     1       9.937   0.895  23.149  0.00  0.00    +0.000 N 
ATOM     10  C   UNL     1       9.735   0.380  21.796  0.00  0.00    +0.000 C 
ATOM     11  C   UNL     1       9.176  -1.005  21.706  0.00  0.00    +0.000 C 
ATOM     12  N   UNL     1       8.570  -1.633  22.788  0.00  0.00    +0.000 NA
ATOM     13  C   UNL     1       8.475  -0.787  23.923  0.00  0.00    +0.000 C 
ATOM     14  C   UNL     1       9.849  -0.144  24.188  0.00  0.00    +0.000 C 
BRANCH  12  15
ATOM     15  C   UNL     1       7.355  -2.257  22.524  0.00  0.00    +0.000 C 
BRANCH  15  16
ATOM     16  C   UNL     1       7.232  -3.574  23.346  0.00  0.00    +0.000 A 
ATOM     17  C   UNL     1       7.458  -4.615  22.252  0.00  0.00    +0.000 A 
ATOM     18  C   UNL     1       6.465  -5.559  21.641  0.00  0.00    +0.000 A 
ATOM     19  C   UNL     1       5.249  -5.409  22.493  0.00  0.00    +0.000 A 
ATOM     20  C   UNL     1       4.783  -4.785  23.626  0.00  0.00    +0.000 A 
ATOM     21  C   UNL     1       4.875  -5.867  24.554  0.00  0.00    +0.000 A 
ATOM     22  C   UNL     1       5.151  -6.418  25.783  0.00  0.00    +0.000 A 
ATOM     23  C   UNL     1       6.148  -5.299  26.129  0.00  0.00    +0.000 A 
ATOM     24  C   UNL     1       6.366  -4.137  25.534  0.00  0.00    +0.000 A 
ATOM     25  C   UNL     1       6.020  -3.903  24.118  0.00  0.00    +0.000 A 
ENDBRANCH  15  16
ENDBRANCH  12  15
ENDBRANCH   6   7
BRANCH   1  28
ATOM     26  N   UNL     1       5.761   2.877  21.321  0.00  0.00    +0.000 N 
ATOM     27  H   UNL     1       6.314   3.503  20.875  0.00  0.00    +0.000 HD
ATOM     28  C   UNL     1       6.251   2.456  22.473  0.00  0.00    +0.000 C 
ATOM     29  O   UNL     1       5.472   2.386  23.454  0.00  0.00    +0.000 OA
BRANCH  26  30
ATOM     30  C   UNL     1       4.353   2.871  20.995  0.00  0.00    +0.000 C 
BRANCH  30  31
ATOM     31  C   UNL     1       4.126   1.970  19.769  0.00  0.00    +0.000 C 
BRANCH  31  36
ATOM     32  C   UNL     1       5.813  -1.268  19.301  0.00  0.00    +0.000 A 
ATOM     33  N   UNL     1       6.098  -1.216  17.846  0.00  0.00    +0.000 NA
ATOM     34  C   UNL     1       5.827  -0.042  17.399  0.00  0.00    +0.000 A 
ATOM     35  C   UNL     1       5.667   1.233  18.017  0.00  0.00    +0.000 A 
ATOM     36  C   UNL     1       5.518   1.465  19.379  0.00  0.00    +0.000 A 
ATOM     37  C   UNL     1       5.751   0.035  19.905  0.00  0.00    +0.000 A 
ENDBRANCH  31  36
ENDBRANCH  30  31
ENDBRANCH  26  30
ENDBRANCH   1  28
BRANCH   3  38
ATOM     38  N   UNL     1       5.948   5.081  24.800  0.00  0.00    +0.000 N 
ATOM     39  H   UNL     1       5.282   5.008  24.111  0.00  0.00    +0.000 HD
ATOM     40  H   UNL     1       5.841   5.797  25.429  0.00  0.00    +0.000 HD
ENDBRANCH   3  38
TORSDOF 8
ENDMDL
