MODEL 1
REMARK VINA RESULT:      -8.7      0.000      0.000
REMARK  Name = 
REMARK  5 active torsions:
REMARK  status: ('A' for Active; 'I' for Inactive)
REMARK    1  A    between atoms: C_4  and  S_5
REMARK    2  A    between atoms: S_5  and  N_8
REMARK    3  A    between atoms: C_16  and  C_18
REMARK    4  A    between atoms: C_18  and  C_21
REMARK    5  A    between atoms: C_37  and  C_39
REMARK                            x       y       z     vdW  Elec       q    Type
REMARK                         _______ _______ _______ _____ _____    ______ ____
ROOT
ATOM      1  C   UNL     1       9.397   0.390  24.226  0.00  0.00    +0.000 C 
ATOM      2  O   UNL     1      10.194   1.207  23.723  0.00  0.00    +0.000 OA
ATOM      3  N   UNL     1       8.172   0.830  24.515  0.00  0.00    +0.000 N 
ATOM      4  C   UNL     1       8.031   1.977  25.421  0.00  0.00    +0.000 C 
ATOM      5  C   UNL     1       7.466   3.115  24.927  0.00  0.00    +0.000 A 
ATOM      6  C   UNL     1       8.692   4.057  24.670  0.00  0.00    +0.000 A 
ATOM      7  C   UNL     1       8.867   5.019  23.575  0.00  0.00    +0.000 A 
ATOM      8  C   UNL     1       7.598   4.923  22.771  0.00  0.00    +0.000 A 
ATOM      9  C   UNL     1       6.387   4.216  22.815  0.00  0.00    +0.000 A 
ATOM     10  C   UNL     1       6.619   3.005  23.727  0.00  0.00    +0.000 A 
ATOM     11  C   UNL     1       6.501   1.718  22.960  0.00  0.00    +0.000 C 
ATOM     12  C   UNL     1       7.037   0.538  23.656  0.00  0.00    +0.000 C 
ENDROOT
BRANCH  11  13
ATOM     13  C   UNL     1       6.930   1.921  21.552  0.00  0.00    +0.000 A 
ATOM     14  C   UNL     1       8.195   1.092  21.400  0.00  0.00    +0.000 A 
ATOM     15  C   UNL     1       8.467   0.004  20.451  0.00  0.00    +0.000 A 
ATOM     16  C   UNL     1       7.294   0.022  19.491  0.00  0.00    +0.000 A 
ATOM     17  C   UNL     1       6.049   0.638  19.338  0.00  0.00    +0.000 A 
ATOM     18  C   UNL     1       6.047   1.812  20.393  0.00  0.00    +0.000 A 
ENDBRANCH  11  13
BRANCH   1  19
ATOM     19  C   UNL     1       9.902  -0.959  24.548  0.00  0.00    +0.000 C 
BRANCH  19  24
ATOM     20  N   UNL     1       6.929  -4.650  24.875  0.00  0.00    +0.000 NA
ATOM     21  C   UNL     1       8.168  -5.009  25.448  0.00  0.00    +0.000 C 
ATOM     22  C   UNL     1       9.251  -3.990  25.128  0.00  0.00    +0.000 C 
ATOM     23  N   UNL     1       8.750  -3.096  24.059  0.00  0.00    +0.000 N 
ATOM     24  C   UNL     1       9.560  -2.072  23.676  0.00  0.00    +0.000 C 
ATOM     25  O   UNL     1      10.393  -2.397  22.767  0.00  0.00    +0.000 OA
ATOM     26  C   UNL     1       8.126  -3.850  22.931  0.00  0.00    +0.000 C 
ATOM     27  C   UNL     1       6.984  -4.682  23.459  0.00  0.00    +0.000 C 
BRANCH  20  28
ATOM     28  S   UNL     1       5.713  -5.569  25.451  0.00  0.00    +0.000 S 
ATOM     29  O   UNL     1       6.196  -6.351  26.558  0.00  0.00    +0.000 OA
ATOM     30  O   UNL     1       5.098  -6.292  24.388  0.00  0.00    +0.000 OA
BRANCH  28  33
ATOM     31  C   UNL     1       4.864  -2.139  27.355  0.00  0.00    +0.000 A 
ATOM     32  S   UNL     1       5.130  -3.904  27.717  0.00  0.00    +0.000 S 
ATOM     33  C   UNL     1       4.444  -4.454  26.116  0.00  0.00    +0.000 A 
ATOM     34  C   UNL     1       4.097  -3.352  25.383  0.00  0.00    +0.000 A 
ATOM     35  C   UNL     1       4.259  -2.017  26.116  0.00  0.00    +0.000 A 
ENDBRANCH  28  33
ENDBRANCH  20  28
ENDBRANCH  19  24
ENDBRANCH   1  19
TORSDOF 5
ENDMDL
MODEL 2
REMARK VINA RESULT:      -8.5      1.539      1.989
REMARK  Name = 
REMARK  5 active torsions:
REMARK  status: ('A' for Active; 'I' for Inactive)
REMARK    1  A    between atoms: C_4  and  S_5
REMARK    2  A    between atoms: S_5  and  N_8
REMARK    3  A    between atoms: C_16  and  C_18
REMARK    4  A    between atoms: C_18  and  C_21
REMARK    5  A    between atoms: C_37  and  C_39
REMARK                            x       y       z     vdW  Elec       q    Type
REMARK                         _______ _______ _______ _____ _____    ______ ____
ROOT
ATOM      1  C   UNL     1       9.271   0.356  24.394  0.00  0.00    +0.000 C 
ATOM      2  O   UNL     1      10.111   1.153  23.932  0.00  0.00    +0.000 OA
ATOM      3  N   UNL     1       8.033   0.813  24.579  0.00  0.00    +0.000 N 
ATOM      4  C   UNL     1       7.835   1.983  25.443  0.00  0.00    +0.000 C 
ATOM      5  C   UNL     1       7.320   3.114  24.880  0.00  0.00    +0.000 A 
ATOM      6  C   UNL     1       8.571   4.039  24.693  0.00  0.00    +0.000 A 
ATOM      7  C   UNL     1       8.838   4.971  23.591  0.00  0.00    +0.000 A 
ATOM      8  C   UNL     1       7.631   4.866  22.696  0.00  0.00    +0.000 A 
ATOM      9  C   UNL     1       6.413   4.169  22.666  0.00  0.00    +0.000 A 
ATOM     10  C   UNL     1       6.564   2.980  23.623  0.00  0.00    +0.000 A 
ATOM     11  C   UNL     1       6.491   1.675  22.881  0.00  0.00    +0.000 C 
ATOM     12  C   UNL     1       6.962   0.509  23.644  0.00  0.00    +0.000 C 
ENDROOT
BRANCH  11  13
ATOM     13  C   UNL     1       7.026   1.839  21.505  0.00  0.00    +0.000 A 
ATOM     14  C   UNL     1       8.273   0.971  21.459  0.00  0.00    +0.000 A 
ATOM     15  C   UNL     1       8.580  -0.142  20.551  0.00  0.00    +0.000 A 
ATOM     16  C   UNL     1       7.480  -0.108  19.507  0.00  0.00    +0.000 A 
ATOM     17  C   UNL     1       6.269   0.540  19.255  0.00  0.00    +0.000 A 
ATOM     18  C   UNL     1       6.226   1.734  20.287  0.00  0.00    +0.000 A 
ENDBRANCH  11  13
BRANCH   1  19
ATOM     19  C   UNL     1       9.737  -0.988  24.785  0.00  0.00    +0.000 C 
BRANCH  19  24
ATOM     20  N   UNL     1       5.981  -3.783  23.981  0.00  0.00    +0.000 NA
ATOM     21  C   UNL     1       6.734  -4.325  25.044  0.00  0.00    +0.000 C 
ATOM     22  C   UNL     1       8.093  -3.651  25.172  0.00  0.00    +0.000 C 
ATOM     23  N   UNL     1       8.330  -2.847  23.951  0.00  0.00    +0.000 N 
ATOM     24  C   UNL     1       9.476  -2.115  23.904  0.00  0.00    +0.000 C 
ATOM     25  O   UNL     1      10.476  -2.766  23.454  0.00  0.00    +0.000 OA
ATOM     26  C   UNL     1       8.026  -3.605  22.701  0.00  0.00    +0.000 C 
ATOM     27  C   UNL     1       6.586  -4.053  22.728  0.00  0.00    +0.000 C 
BRANCH  20  28
ATOM     28  S   UNL     1       4.433  -4.289  24.024  0.00  0.00    +0.000 S 
ATOM     29  O   UNL     1       4.035  -4.706  22.705  0.00  0.00    +0.000 OA
ATOM     30  O   UNL     1       3.612  -3.306  24.650  0.00  0.00    +0.000 OA
BRANCH  28  33
ATOM     31  C   UNL     1       2.174  -6.868  26.109  0.00  0.00    +0.000 A 
ATOM     32  S   UNL     1       3.129  -5.339  26.358  0.00  0.00    +0.000 S 
ATOM     33  C   UNL     1       4.362  -5.765  25.080  0.00  0.00    +0.000 A 
ATOM     34  C   UNL     1       4.010  -6.957  24.508  0.00  0.00    +0.000 A 
ATOM     35  C   UNL     1       2.799  -7.642  25.146  0.00  0.00    +0.000 A 
ENDBRANCH  28  33
ENDBRANCH  20  28
ENDBRANCH  19  24
ENDBRANCH   1  19
TORSDOF 5
ENDMDL
MODEL 3
REMARK VINA RESULT:      -8.1      2.936      7.871
REMARK  Name = 
REMARK  5 active torsions:
REMARK  status: ('A' for Active; 'I' for Inactive)
REMARK    1  A    between atoms: C_4  and  S_5
REMARK    2  A    between atoms: S_5  and  N_8
REMARK    3  A    between atoms: C_16  and  C_18
REMARK    4  A    between atoms: C_18  and  C_21
REMARK    5  A    between atoms: C_37  and  C_39
REMARK                            x       y       z     vdW  Elec       q    Type
REMARK                         _______ _______ _______ _____ _____    ______ ____
ROOT
ATOM      1  C   UNL     1       7.972  -3.073  25.701  0.00  0.00    +0.000 C 
ATOM      2  O   UNL     1       8.636  -4.036  25.269  0.00  0.00    +0.000 OA
ATOM      3  N   UNL     1       6.807  -2.818  25.105  0.00  0.00    +0.000 N 
ATOM      4  C   UNL     1       6.797  -2.557  23.660  0.00  0.00    +0.000 C 
ATOM      5  C   UNL     1       6.115  -3.425  22.860  0.00  0.00    +0.000 A 
ATOM      6  C   UNL     1       7.241  -4.310  22.226  0.00  0.00    +0.000 A 
ATOM      7  C   UNL     1       7.182  -5.743  21.909  0.00  0.00    +0.000 A 
ATOM      8  C   UNL     1       5.791  -6.166  22.298  0.00  0.00    +0.000 A 
ATOM      9  C   UNL     1       4.631  -5.578  22.827  0.00  0.00    +0.000 A 
ATOM     10  C   UNL     1       5.066  -4.257  23.474  0.00  0.00    +0.000 A 
ATOM     11  C   UNL     1       4.851  -4.285  24.961  0.00  0.00    +0.000 C 
ATOM     12  C   UNL     1       5.543  -3.219  25.701  0.00  0.00    +0.000 C 
ENDROOT
BRANCH  11  13
ATOM     13  C   UNL     1       5.007  -5.670  25.474  0.00  0.00    +0.000 A 
ATOM     14  C   UNL     1       6.043  -5.568  26.583  0.00  0.00    +0.000 A 
ATOM     15  C   UNL     1       5.911  -5.948  27.995  0.00  0.00    +0.000 A 
ATOM     16  C   UNL     1       4.587  -6.682  28.079  0.00  0.00    +0.000 A 
ATOM     17  C   UNL     1       3.470  -6.961  27.288  0.00  0.00    +0.000 A 
ATOM     18  C   UNL     1       3.899  -6.554  25.825  0.00  0.00    +0.000 A 
ENDBRANCH  11  13
BRANCH   1  19
ATOM     19  C   UNL     1       8.570  -2.243  26.765  0.00  0.00    +0.000 C 
BRANCH  19  24
ATOM     20  N   UNL     1       8.333   1.095  23.394  0.00  0.00    +0.000 NA
ATOM     21  C   UNL     1       9.676   0.955  23.803  0.00  0.00    +0.000 C 
ATOM     22  C   UNL     1       9.793   0.117  25.069  0.00  0.00    +0.000 C 
ATOM     23  N   UNL     1       8.441  -0.034  25.654  0.00  0.00    +0.000 N 
ATOM     24  C   UNL     1       8.330  -0.809  26.767  0.00  0.00    +0.000 C 
ATOM     25  O   UNL     1       8.534  -0.171  27.852  0.00  0.00    +0.000 OA
ATOM     26  C   UNL     1       7.701   1.261  25.724  0.00  0.00    +0.000 C 
ATOM     27  C   UNL     1       7.580   1.840  24.336  0.00  0.00    +0.000 C 
BRANCH  20  28
ATOM     28  S   UNL     1       8.226   1.732  21.898  0.00  0.00    +0.000 S 
ATOM     29  O   UNL     1       9.538   1.773  21.307  0.00  0.00    +0.000 OA
ATOM     30  O   UNL     1       7.514   2.966  21.940  0.00  0.00    +0.000 OA
BRANCH  28  33
ATOM     31  C   UNL     1       6.001   1.190  18.603  0.00  0.00    +0.000 A 
ATOM     32  S   UNL     1       5.802   1.609  20.363  0.00  0.00    +0.000 S 
ATOM     33  C   UNL     1       7.233   0.600  20.884  0.00  0.00    +0.000 A 
ATOM     34  C   UNL     1       7.809   0.047  19.773  0.00  0.00    +0.000 A 
ATOM     35  C   UNL     1       7.062   0.312  18.463  0.00  0.00    +0.000 A 
ENDBRANCH  28  33
ENDBRANCH  20  28
ENDBRANCH  19  24
ENDBRANCH   1  19
TORSDOF 5
ENDMDL
MODEL 4
REMARK VINA RESULT:      -7.9      1.971      3.962
REMARK  Name = 
REMARK  5 active torsions:
REMARK  status: ('A' for Active; 'I' for Inactive)
REMARK    1  A    between atoms: C_4  and  S_5
REMARK    2  A    between atoms: S_5  and  N_8
REMARK    3  A    between atoms: C_16  and  C_18
REMARK    4  A    between atoms: C_18  and  C_21
REMARK    5  A    between atoms: C_37  and  C_39
REMARK                            x       y       z     vdW  Elec       q    Type
REMARK                         _______ _______ _______ _____ _____    ______ ____
ROOT
ATOM      1  C   UNL     1       8.911  -2.254  23.786  0.00  0.00    +0.000 C 
ATOM      2  O   UNL     1       7.801  -2.248  23.217  0.00  0.00    +0.000 OA
ATOM      3  N   UNL     1       9.724  -1.225  23.550  0.00  0.00    +0.000 N 
ATOM      4  C   UNL     1      10.107  -0.933  22.162  0.00  0.00    +0.000 C 
ATOM      5  C   UNL     1       9.728   0.265  21.633  0.00  0.00    +0.000 A 
ATOM      6  C   UNL     1       8.498  -0.098  20.733  0.00  0.00    +0.000 A 
ATOM      7  C   UNL     1       7.288   0.701  20.505  0.00  0.00    +0.000 A 
ATOM      8  C   UNL     1       7.502   1.960  21.303  0.00  0.00    +0.000 A 
ATOM      9  C   UNL     1       8.494   2.517  22.126  0.00  0.00    +0.000 A 
ATOM     10  C   UNL     1       9.401   1.361  22.562  0.00  0.00    +0.000 A 
ATOM     11  C   UNL     1       9.323   1.140  24.046  0.00  0.00    +0.000 C 
ATOM     12  C   UNL     1       9.879  -0.141  24.506  0.00  0.00    +0.000 C 
ENDROOT
BRANCH  11  13
ATOM     13  C   UNL     1       7.972   1.505  24.546  0.00  0.00    +0.000 A 
ATOM     14  C   UNL     1       7.633   0.445  25.581  0.00  0.00    +0.000 A 
ATOM     15  C   UNL     1       7.295   0.626  26.999  0.00  0.00    +0.000 A 
ATOM     16  C   UNL     1       7.132   2.123  27.173  0.00  0.00    +0.000 A 
ATOM     17  C   UNL     1       7.332   3.308  26.460  0.00  0.00    +0.000 A 
ATOM     18  C   UNL     1       7.580   2.847  24.971  0.00  0.00    +0.000 A 
ENDBRANCH  11  13
BRANCH   1  19
ATOM     19  C   UNL     1       9.267  -3.437  24.593  0.00  0.00    +0.000 C 
BRANCH  19  24
ATOM     20  N   UNL     1       5.387  -4.827  26.955  0.00  0.00    +0.000 NA
ATOM     21  C   UNL     1       6.530  -5.243  27.670  0.00  0.00    +0.000 C 
ATOM     22  C   UNL     1       7.798  -5.088  26.842  0.00  0.00    +0.000 C 
ATOM     23  N   UNL     1       7.409  -4.840  25.435  0.00  0.00    +0.000 N 
ATOM     24  C   UNL     1       8.412  -4.612  24.545  0.00  0.00    +0.000 C 
ATOM     25  O   UNL     1       8.891  -5.680  24.037  0.00  0.00    +0.000 OA
ATOM     26  C   UNL     1       6.358  -5.789  24.959  0.00  0.00    +0.000 C 
ATOM     27  C   UNL     1       5.140  -5.667  25.840  0.00  0.00    +0.000 C 
BRANCH  20  28
ATOM     28  S   UNL     1       4.082  -4.714  27.924  0.00  0.00    +0.000 S 
ATOM     29  O   UNL     1       4.516  -4.630  29.293  0.00  0.00    +0.000 OA
ATOM     30  O   UNL     1       3.153  -5.751  27.619  0.00  0.00    +0.000 OA
BRANCH  28  33
ATOM     31  C   UNL     1       4.053  -0.715  28.253  0.00  0.00    +0.000 A 
ATOM     32  S   UNL     1       3.385  -2.186  29.093  0.00  0.00    +0.000 S 
ATOM     33  C   UNL     1       3.246  -3.147  27.546  0.00  0.00    +0.000 A 
ATOM     34  C   UNL     1       3.722  -2.389  26.511  0.00  0.00    +0.000 A 
ATOM     35  C   UNL     1       4.114  -0.959  26.892  0.00  0.00    +0.000 A 
ENDBRANCH  28  33
ENDBRANCH  20  28
ENDBRANCH  19  24
ENDBRANCH   1  19
TORSDOF 5
ENDMDL
MODEL 5
REMARK VINA RESULT:      -7.6      2.939      7.923
REMARK  Name = 
REMARK  5 active torsions:
REMARK  status: ('A' for Active; 'I' for Inactive)
REMARK    1  A    between atoms: C_4  and  S_5
REMARK    2  A    between atoms: S_5  and  N_8
REMARK    3  A    between atoms: C_16  and  C_18
REMARK    4  A    between atoms: C_18  and  C_21
REMARK    5  A    between atoms: C_37  and  C_39
REMARK                            x       y       z     vdW  Elec       q    Type
REMARK                         _______ _______ _______ _____ _____    ______ ____
ROOT
ATOM      1  C   UNL     1       6.605  -5.309  25.192  0.00  0.00    +0.000 C 
ATOM      2  O   UNL     1       6.210  -6.123  26.050  0.00  0.00    +0.000 OA
ATOM      3  N   UNL     1       5.725  -4.918  24.270  0.00  0.00    +0.000 N 
ATOM      4  C   UNL     1       5.081  -5.938  23.433  0.00  0.00    +0.000 C 
ATOM      5  C   UNL     1       3.728  -6.078  23.526  0.00  0.00    +0.000 A 
ATOM      6  C   UNL     1       3.547  -7.355  24.416  0.00  0.00    +0.000 A 
ATOM      7  C   UNL     1       2.505  -7.605  25.420  0.00  0.00    +0.000 A 
ATOM      8  C   UNL     1       1.633  -6.379  25.385  0.00  0.00    +0.000 A 
ATOM      9  C   UNL     1       1.564  -5.168  24.678  0.00  0.00    +0.000 A 
ATOM     10  C   UNL     1       2.947  -4.946  24.054  0.00  0.00    +0.000 A 
ATOM     11  C   UNL     1       3.614  -3.729  24.631  0.00  0.00    +0.000 C 
ATOM     12  C   UNL     1       5.055  -3.631  24.355  0.00  0.00    +0.000 C 
ENDROOT
BRANCH  11  13
ATOM     13  C   UNL     1       3.184  -3.531  26.039  0.00  0.00    +0.000 A 
ATOM     14  C   UNL     1       4.458  -3.202  26.800  0.00  0.00    +0.000 A 
ATOM     15  C   UNL     1       4.764  -2.009  27.600  0.00  0.00    +0.000 A 
ATOM     16  C   UNL     1       3.451  -1.258  27.698  0.00  0.00    +0.000 A 
ATOM     17  C   UNL     1       2.157  -1.297  27.171  0.00  0.00    +0.000 A 
ATOM     18  C   UNL     1       2.056  -2.699  26.452  0.00  0.00    +0.000 A 
ENDBRANCH  11  13
BRANCH   1  19
ATOM     19  C   UNL     1       8.029  -4.923  25.211  0.00  0.00    +0.000 C 
BRANCH  19  24
ATOM     20  N   UNL     1       8.693  -0.718  23.103  0.00  0.00    +0.000 NA
ATOM     21  C   UNL     1       9.905  -1.440  23.073  0.00  0.00    +0.000 C 
ATOM     22  C   UNL     1       9.851  -2.666  23.972  0.00  0.00    +0.000 C 
ATOM     23  N   UNL     1       8.656  -2.556  24.839  0.00  0.00    +0.000 N 
ATOM     24  C   UNL     1       8.400  -3.597  25.678  0.00  0.00    +0.000 C 
ATOM     25  O   UNL     1       9.001  -3.504  26.799  0.00  0.00    +0.000 OA
ATOM     26  C   UNL     1       8.528  -1.207  25.466  0.00  0.00    +0.000 C 
ATOM     27  C   UNL     1       8.455  -0.159  24.384  0.00  0.00    +0.000 C 
BRANCH  20  28
ATOM     28  S   UNL     1       8.641   0.415  21.933  0.00  0.00    +0.000 S 
ATOM     29  O   UNL     1       9.970   0.915  21.700  0.00  0.00    +0.000 OA
ATOM     30  O   UNL     1       7.645   1.388  22.236  0.00  0.00    +0.000 OA
BRANCH  28  33
ATOM     31  C   UNL     1       5.615  -0.920  19.661  0.00  0.00    +0.000 A 
ATOM     32  S   UNL     1       6.776  -1.523  20.926  0.00  0.00    +0.000 S 
ATOM     33  C   UNL     1       8.115  -0.399  20.397  0.00  0.00    +0.000 A 
ATOM     34  C   UNL     1       7.656   0.382  19.371  0.00  0.00    +0.000 A 
ATOM     35  C   UNL     1       6.246   0.036  18.885  0.00  0.00    +0.000 A 
ENDBRANCH  28  33
ENDBRANCH  20  28
ENDBRANCH  19  24
ENDBRANCH   1  19
TORSDOF 5
ENDMDL
MODEL 6
REMARK VINA RESULT:      -7.6      2.481      4.636
REMARK  Name = 
REMARK  5 active torsions:
REMARK  status: ('A' for Active; 'I' for Inactive)
REMARK    1  A    between atoms: C_4  and  S_5
REMARK    2  A    between atoms: S_5  and  N_8
REMARK    3  A    between atoms: C_16  and  C_18
REMARK    4  A    between atoms: C_18  and  C_21
REMARK    5  A    between atoms: C_37  and  C_39
REMARK                            x       y       z     vdW  Elec       q    Type
REMARK                         _______ _______ _______ _____ _____    ______ ____
ROOT
ATOM      1  C   UNL     1       6.550  -0.605  25.713  0.00  0.00    +0.000 C 
ATOM      2  O   UNL     1       6.469  -1.242  24.644  0.00  0.00    +0.000 OA
ATOM      3  N   UNL     1       7.656   0.111  25.915  0.00  0.00    +0.000 N 
ATOM      4  C   UNL     1       8.954  -0.574  25.881  0.00  0.00    +0.000 C 
ATOM      5  C   UNL     1       9.844  -0.209  24.914  0.00  0.00    +0.000 A 
ATOM      6  C   UNL     1       9.730  -1.356  23.852  0.00  0.00    +0.000 A 
ATOM      7  C   UNL     1       9.822  -1.236  22.392  0.00  0.00    +0.000 A 
ATOM      8  C   UNL     1      10.079   0.226  22.141  0.00  0.00    +0.000 A 
ATOM      9  C   UNL     1      10.255   1.398  22.893  0.00  0.00    +0.000 A 
ATOM     10  C   UNL     1       9.683   1.114  24.287  0.00  0.00    +0.000 A 
ATOM     11  C   UNL     1       8.490   1.982  24.571  0.00  0.00    +0.000 C 
ATOM     12  C   UNL     1       7.677   1.551  25.719  0.00  0.00    +0.000 C 
ENDROOT
BRANCH  11  13
ATOM     13  C   UNL     1       7.765   2.282  23.309  0.00  0.00    +0.000 A 
ATOM     14  C   UNL     1       6.293   2.103  23.645  0.00  0.00    +0.000 A 
ATOM     15  C   UNL     1       5.202   3.079  23.528  0.00  0.00    +0.000 A 
ATOM     16  C   UNL     1       5.808   4.252  22.783  0.00  0.00    +0.000 A 
ATOM     17  C   UNL     1       7.051   4.701  22.329  0.00  0.00    +0.000 A 
ATOM     18  C   UNL     1       8.008   3.454  22.472  0.00  0.00    +0.000 A 
ENDBRANCH  11  13
BRANCH   1  19
ATOM     19  C   UNL     1       5.465  -0.771  26.700  0.00  0.00    +0.000 C 
BRANCH  19  24
ATOM     20  N   UNL     1       4.180  -4.858  24.648  0.00  0.00    +0.000 NA
ATOM     21  C   UNL     1       3.022  -4.094  24.910  0.00  0.00    +0.000 C 
ATOM     22  C   UNL     1       3.323  -2.910  25.817  0.00  0.00    +0.000 C 
ATOM     23  N   UNL     1       4.674  -3.097  26.395  0.00  0.00    +0.000 N 
ATOM     24  C   UNL     1       5.151  -2.103  27.192  0.00  0.00    +0.000 C 
ATOM     25  O   UNL     1       4.806  -2.222  28.414  0.00  0.00    +0.000 OA
ATOM     26  C   UNL     1       4.878  -4.475  26.933  0.00  0.00    +0.000 C 
ATOM     27  C   UNL     1       4.668  -5.478  25.825  0.00  0.00    +0.000 C 
BRANCH  20  28
ATOM     28  S   UNL     1       3.927  -5.941  23.457  0.00  0.00    +0.000 S 
ATOM     29  O   UNL     1       2.685  -5.635  22.797  0.00  0.00    +0.000 OA
ATOM     30  O   UNL     1       4.064  -7.266  23.962  0.00  0.00    +0.000 OA
BRANCH  28  33
ATOM     31  C   UNL     1       7.448  -4.269  22.503  0.00  0.00    +0.000 A 
ATOM     32  S   UNL     1       5.664  -3.949  22.333  0.00  0.00    +0.000 S 
ATOM     33  C   UNL     1       5.240  -5.722  22.222  0.00  0.00    +0.000 A 
ATOM     34  C   UNL     1       6.385  -6.459  22.353  0.00  0.00    +0.000 A 
ATOM     35  C   UNL     1       7.672  -5.634  22.434  0.00  0.00    +0.000 A 
ENDBRANCH  28  33
ENDBRANCH  20  28
ENDBRANCH  19  24
ENDBRANCH   1  19
TORSDOF 5
ENDMDL
MODEL 7
REMARK VINA RESULT:      -7.6      3.147      7.252
REMARK  Name = 
REMARK  5 active torsions:
REMARK  status: ('A' for Active; 'I' for Inactive)
REMARK    1  A    between atoms: C_4  and  S_5
REMARK    2  A    between atoms: S_5  and  N_8
REMARK    3  A    between atoms: C_16  and  C_18
REMARK    4  A    between atoms: C_18  and  C_21
REMARK    5  A    between atoms: C_37  and  C_39
REMARK                            x       y       z     vdW  Elec       q    Type
REMARK                         _______ _______ _______ _____ _____    ______ ____
ROOT
ATOM      1  C   UNL     1       7.637  -3.056  23.298  0.00  0.00    +0.000 C 
ATOM      2  O   UNL     1       7.994  -3.972  24.065  0.00  0.00    +0.000 OA
ATOM      3  N   UNL     1       6.356  -2.689  23.340  0.00  0.00    +0.000 N 
ATOM      4  C   UNL     1       5.324  -3.702  23.088  0.00  0.00    +0.000 C 
ATOM      5  C   UNL     1       4.453  -3.992  24.097  0.00  0.00    +0.000 A 
ATOM      6  C   UNL     1       4.990  -5.347  24.673  0.00  0.00    +0.000 A 
ATOM      7  C   UNL     1       4.995  -5.785  26.074  0.00  0.00    +0.000 A 
ATOM      8  C   UNL     1       4.342  -4.659  26.831  0.00  0.00    +0.000 A 
ATOM      9  C   UNL     1       3.766  -3.410  26.552  0.00  0.00    +0.000 A 
ATOM     10  C   UNL     1       4.272  -2.995  25.165  0.00  0.00    +0.000 A 
ATOM     11  C   UNL     1       5.130  -1.763  25.248  0.00  0.00    +0.000 C 
ATOM     12  C   UNL     1       5.930  -1.491  24.045  0.00  0.00    +0.000 C 
ENDROOT
BRANCH  11  13
ATOM     13  C   UNL     1       5.841  -1.723  26.552  0.00  0.00    +0.000 A 
ATOM     14  C   UNL     1       7.307  -1.531  26.198  0.00  0.00    +0.000 A 
ATOM     15  C   UNL     1       8.215  -0.454  26.613  0.00  0.00    +0.000 A 
ATOM     16  C   UNL     1       7.445   0.321  27.664  0.00  0.00    +0.000 A 
ATOM     17  C   UNL     1       6.162   0.389  28.213  0.00  0.00    +0.000 A 
ATOM     18  C   UNL     1       5.431  -0.911  27.695  0.00  0.00    +0.000 A 
ENDBRANCH  11  13
BRANCH   1  19
ATOM     19  C   UNL     1       8.632  -2.523  22.348  0.00  0.00    +0.000 C 
BRANCH  19  24
ATOM     20  N   UNL     1       8.777   2.133  23.276  0.00  0.00    +0.000 NA
ATOM     21  C   UNL     1       9.088   1.930  21.914  0.00  0.00    +0.000 C 
ATOM     22  C   UNL     1       9.341   0.460  21.610  0.00  0.00    +0.000 C 
ATOM     23  N   UNL     1       9.486  -0.264  22.894  0.00  0.00    +0.000 N 
ATOM     24  C   UNL     1       9.658  -1.612  22.829  0.00  0.00    +0.000 C 
ATOM     25  O   UNL     1      10.877  -1.963  22.699  0.00  0.00    +0.000 OA
ATOM     26  C   UNL     1      10.405   0.435  23.842  0.00  0.00    +0.000 C 
ATOM     27  C   UNL     1       9.880   1.823  24.111  0.00  0.00    +0.000 C 
BRANCH  20  28
ATOM     28  S   UNL     1       8.224   3.642  23.545  0.00  0.00    +0.000 S 
ATOM     29  O   UNL     1       7.750   4.199  22.305  0.00  0.00    +0.000 OA
ATOM     30  O   UNL     1       9.202   4.405  24.247  0.00  0.00    +0.000 OA
BRANCH  28  33
ATOM     31  C   UNL     1       4.277   3.016  23.912  0.00  0.00    +0.000 A 
ATOM     32  S   UNL     1       5.459   4.390  23.740  0.00  0.00    +0.000 S 
ATOM     33  C   UNL     1       6.784   3.516  24.643  0.00  0.00    +0.000 A 
ATOM     34  C   UNL     1       6.335   2.270  24.987  0.00  0.00    +0.000 A 
ATOM     35  C   UNL     1       4.868   2.000  24.644  0.00  0.00    +0.000 A 
ENDBRANCH  28  33
ENDBRANCH  20  28
ENDBRANCH  19  24
ENDBRANCH   1  19
TORSDOF 5
ENDMDL
MODEL 8
REMARK VINA RESULT:      -7.6      2.815      5.461
REMARK  Name = 
REMARK  5 active torsions:
REMARK  status: ('A' for Active; 'I' for Inactive)
REMARK    1  A    between atoms: C_4  and  S_5
REMARK    2  A    between atoms: S_5  and  N_8
REMARK    3  A    between atoms: C_16  and  C_18
REMARK    4  A    between atoms: C_18  and  C_21
REMARK    5  A    between atoms: C_37  and  C_39
REMARK                            x       y       z     vdW  Elec       q    Type
REMARK                         _______ _______ _______ _____ _____    ______ ____
ROOT
ATOM      1  C   UNL     1       5.779  -0.153  25.958  0.00  0.00    +0.000 C 
ATOM      2  O   UNL     1       6.703   0.340  26.634  0.00  0.00    +0.000 OA
ATOM      3  N   UNL     1       6.050  -0.472  24.693  0.00  0.00    +0.000 N 
ATOM      4  C   UNL     1       6.546   0.577  23.793  0.00  0.00    +0.000 C 
ATOM      5  C   UNL     1       7.796   0.430  23.267  0.00  0.00    +0.000 A 
ATOM      6  C   UNL     1       8.677   1.396  24.131  0.00  0.00    +0.000 A 
ATOM      7  C   UNL     1      10.065   1.194  24.564  0.00  0.00    +0.000 A 
ATOM      8  C   UNL     1      10.465  -0.131  23.972  0.00  0.00    +0.000 A 
ATOM      9  C   UNL     1       9.894  -1.127  23.163  0.00  0.00    +0.000 A 
ATOM     10  C   UNL     1       8.375  -0.923  23.225  0.00  0.00    +0.000 A 
ATOM     11  C   UNL     1       7.698  -2.093  23.882  0.00  0.00    +0.000 C 
ATOM     12  C   UNL     1       6.307  -1.845  24.292  0.00  0.00    +0.000 C 
ENDROOT
BRANCH  11  13
ATOM     13  C   UNL     1       8.599  -2.703  24.893  0.00  0.00    +0.000 A 
ATOM     14  C   UNL     1       7.739  -2.877  26.135  0.00  0.00    +0.000 A 
ATOM     15  C   UNL     1       7.440  -4.110  26.875  0.00  0.00    +0.000 A 
ATOM     16  C   UNL     1       8.355  -5.158  26.272  0.00  0.00    +0.000 A 
ATOM     17  C   UNL     1       9.237  -5.314  25.200  0.00  0.00    +0.000 A 
ATOM     18  C   UNL     1       9.464  -3.854  24.646  0.00  0.00    +0.000 A 
ENDBRANCH  11  13
BRANCH   1  19
ATOM     19  C   UNL     1       4.445  -0.253  26.582  0.00  0.00    +0.000 C 
BRANCH  19  24
ATOM     20  N   UNL     1       4.120  -4.948  27.233  0.00  0.00    +0.000 NA
ATOM     21  C   UNL     1       2.833  -4.434  26.963  0.00  0.00    +0.000 C 
ATOM     22  C   UNL     1       2.811  -2.914  27.026  0.00  0.00    +0.000 C 
ATOM     23  N   UNL     1       4.071  -2.454  27.653  0.00  0.00    +0.000 N 
ATOM     24  C   UNL     1       4.266  -1.111  27.742  0.00  0.00    +0.000 C 
ATOM     25  O   UNL     1       3.763  -0.594  28.795  0.00  0.00    +0.000 OA
ATOM     26  C   UNL     1       4.400  -3.214  28.896  0.00  0.00    +0.000 C 
ATOM     27  C   UNL     1       4.514  -4.681  28.568  0.00  0.00    +0.000 C 
BRANCH  20  28
ATOM     28  S   UNL     1       4.216  -6.536  26.881  0.00  0.00    +0.000 S 
ATOM     29  O   UNL     1       2.918  -7.135  27.043  0.00  0.00    +0.000 OA
ATOM     30  O   UNL     1       5.283  -7.136  27.611  0.00  0.00    +0.000 OA
BRANCH  28  33
ATOM     31  C   UNL     1       3.207  -5.820  23.064  0.00  0.00    +0.000 A 
ATOM     32  S   UNL     1       3.067  -7.132  24.318  0.00  0.00    +0.000 S 
ATOM     33  C   UNL     1       4.645  -6.689  25.124  0.00  0.00    +0.000 A 
ATOM     34  C   UNL     1       5.175  -5.600  24.486  0.00  0.00    +0.000 A 
ATOM     35  C   UNL     1       4.398  -5.141  23.250  0.00  0.00    +0.000 A 
ENDBRANCH  28  33
ENDBRANCH  20  28
ENDBRANCH  19  24
ENDBRANCH   1  19
TORSDOF 5
ENDMDL
MODEL 9
REMARK VINA RESULT:      -7.5      2.319      4.518
REMARK  Name = 
REMARK  5 active torsions:
REMARK  status: ('A' for Active; 'I' for Inactive)
REMARK    1  A    between atoms: C_4  and  S_5
REMARK    2  A    between atoms: S_5  and  N_8
REMARK    3  A    between atoms: C_16  and  C_18
REMARK    4  A    between atoms: C_18  and  C_21
REMARK    5  A    between atoms: C_37  and  C_39
REMARK                            x       y       z     vdW  Elec       q    Type
REMARK                         _______ _______ _______ _____ _____    ______ ____
ROOT
ATOM      1  C   UNL     1       8.390  -2.773  23.391  0.00  0.00    +0.000 C 
ATOM      2  O   UNL     1       7.334  -2.547  22.766  0.00  0.00    +0.000 OA
ATOM      3  N   UNL     1       9.354  -1.856  23.312  0.00  0.00    +0.000 N 
ATOM      4  C   UNL     1       9.869  -1.486  21.988  0.00  0.00    +0.000 C 
ATOM      5  C   UNL     1       9.700  -0.198  21.573  0.00  0.00    +0.000 A 
ATOM      6  C   UNL     1       8.497  -0.285  20.573  0.00  0.00    +0.000 A 
ATOM      7  C   UNL     1       7.430   0.703  20.369  0.00  0.00    +0.000 A 
ATOM      8  C   UNL     1       7.763   1.830  21.310  0.00  0.00    +0.000 A 
ATOM      9  C   UNL     1       8.763   2.150  22.241  0.00  0.00    +0.000 A 
ATOM     10  C   UNL     1       9.468   0.835  22.597  0.00  0.00    +0.000 A 
ATOM     11  C   UNL     1       9.256   0.480  24.042  0.00  0.00    +0.000 C 
ATOM     12  C   UNL     1       9.594  -0.909  24.388  0.00  0.00    +0.000 C 
ENDROOT
BRANCH  11  13
ATOM     13  C   UNL     1       7.939   0.988  24.505  0.00  0.00    +0.000 A 
ATOM     14  C   UNL     1       7.434  -0.058  25.486  0.00  0.00    +0.000 A 
ATOM     15  C   UNL     1       7.062   0.115  26.896  0.00  0.00    +0.000 A 
ATOM     16  C   UNL     1       7.070   1.614  27.120  0.00  0.00    +0.000 A 
ATOM     17  C   UNL     1       7.439   2.790  26.460  0.00  0.00    +0.000 A 
ATOM     18  C   UNL     1       7.691   2.352  24.965  0.00  0.00    +0.000 A 
ENDBRANCH  11  13
BRANCH   1  19
ATOM     19  C   UNL     1       8.520  -4.071  24.081  0.00  0.00    +0.000 C 
BRANCH  19  24
ATOM     20  N   UNL     1       4.711  -5.290  26.645  0.00  0.00    +0.000 NA
ATOM     21  C   UNL     1       4.634  -3.914  26.339  0.00  0.00    +0.000 C 
ATOM     22  C   UNL     1       5.945  -3.391  25.771  0.00  0.00    +0.000 C 
ATOM     23  N   UNL     1       6.994  -4.411  26.001  0.00  0.00    +0.000 N 
ATOM     24  C   UNL     1       8.233  -4.150  25.504  0.00  0.00    +0.000 C 
ATOM     25  O   UNL     1       8.967  -3.475  26.300  0.00  0.00    +0.000 OA
ATOM     26  C   UNL     1       6.982  -4.934  27.400  0.00  0.00    +0.000 C 
ATOM     27  C   UNL     1       5.631  -5.535  27.696  0.00  0.00    +0.000 C 
BRANCH  20  28
ATOM     28  S   UNL     1       3.242  -5.914  26.973  0.00  0.00    +0.000 S 
ATOM     29  O   UNL     1       2.338  -4.844  27.304  0.00  0.00    +0.000 OA
ATOM     30  O   UNL     1       3.357  -6.963  27.931  0.00  0.00    +0.000 OA
BRANCH  28  33
ATOM     31  C   UNL     1       2.211  -5.455  23.122  0.00  0.00    +0.000 A 
ATOM     32  S   UNL     1       1.455  -5.432  24.778  0.00  0.00    +0.000 S 
ATOM     33  C   UNL     1       2.612  -6.675  25.450  0.00  0.00    +0.000 A 
ATOM     34  C   UNL     1       3.509  -7.016  24.473  0.00  0.00    +0.000 A 
ATOM     35  C   UNL     1       3.240  -6.381  23.106  0.00  0.00    +0.000 A 
ENDBRANCH  28  33
ENDBRANCH  20  28
ENDBRANCH  19  24
ENDBRANCH   1  19
TORSDOF 5
ENDMDL
