MODEL 1
REMARK VINA RESULT:      -8.6      0.000      0.000
REMARK  Name = 
REMARK  7 active torsions:
REMARK  status: ('A' for Active; 'I' for Inactive)
REMARK    1  A    between atoms: C_7  and  C_8
REMARK    2  A    between atoms: C_24  and  C_26
REMARK    3  A    between atoms: C_26  and  C_29
REMARK    4  A    between atoms: N_38  and  S_39
REMARK    5  A    between atoms: S_39  and  C_42
REMARK    6  A    between atoms: C_45  and  C_46
REMARK    7  A    between atoms: C_54  and  C_55
REMARK                            x       y       z     vdW  Elec       q    Type
REMARK                         _______ _______ _______ _____ _____    ______ ____
ROOT
ATOM      1  C   UNL     1       7.827  -3.263  22.511  0.00  0.00    +0.000 C 
ENDROOT
BRANCH   1  11
ATOM      2  C   UNL     1       8.653   1.203  21.363  0.00  0.00    +0.000 C 
ATOM      3  C   UNL     1       7.450   1.090  20.744  0.00  0.00    +0.000 A 
ATOM      4  C   UNL     1       6.337   1.724  20.388  0.00  0.00    +0.000 A 
ATOM      5  C   UNL     1       5.612   1.307  19.211  0.00  0.00    +0.000 A 
ATOM      6  C   UNL     1       5.604  -0.303  19.253  0.00  0.00    +0.000 A 
ATOM      7  C   UNL     1       6.375  -1.247  19.924  0.00  0.00    +0.000 A 
ATOM      8  C   UNL     1       6.681  -0.428  21.049  0.00  0.00    +0.000 A 
ATOM      9  C   UNL     1       7.125  -0.983  22.369  0.00  0.00    +0.000 C 
ATOM     10  N   UNL     1       8.531  -0.955  22.583  0.00  0.00    +0.000 N 
ATOM     11  C   UNL     1       8.919  -2.215  22.623  0.00  0.00    +0.000 C 
ATOM     12  O   UNL     1      10.045  -2.475  22.908  0.00  0.00    +0.000 OA
ATOM     13  C   UNL     1       9.238  -0.150  21.723  0.00  0.00    +0.000 C 
BRANCH   2  17
ATOM     14  C   UNL     1       8.972   4.684  23.464  0.00  0.00    +0.000 A 
ATOM     15  C   UNL     1       7.627   4.240  22.951  0.00  0.00    +0.000 A 
ATOM     16  C   UNL     1       7.184   2.871  22.710  0.00  0.00    +0.000 A 
ATOM     17  C   UNL     1       8.364   1.917  22.751  0.00  0.00    +0.000 A 
ATOM     18  C   UNL     1       9.588   2.091  23.610  0.00  0.00    +0.000 A 
ATOM     19  C   UNL     1       9.816   3.572  23.957  0.00  0.00    +0.000 A 
ENDBRANCH   2  17
ENDBRANCH   1  11
BRANCH   1  20
ATOM     20  C   UNL     1       7.211  -3.936  23.671  0.00  0.00    +0.000 C 
ATOM     21  O   UNL     1       6.732  -5.128  23.396  0.00  0.00    +0.000 OA
ATOM     22  N   UNL     1       7.404  -3.737  25.030  0.00  0.00    +0.000 N 
ATOM     23  C   UNL     1       8.269  -4.821  25.625  0.00  0.00    +0.000 C 
ATOM     24  C   UNL     1       7.680  -5.402  26.880  0.00  0.00    +0.000 C 
ATOM     25  N   UNL     1       6.312  -5.056  27.097  0.00  0.00    +0.000 NA
ATOM     26  C   UNL     1       6.205  -3.677  27.206  0.00  0.00    +0.000 C 
ATOM     27  C   UNL     1       6.868  -2.916  26.037  0.00  0.00    +0.000 C 
BRANCH  25  28
ATOM     28  S   UNL     1       5.616  -5.751  28.374  0.00  0.00    +0.000 S 
ATOM     29  O   UNL     1       5.886  -7.250  28.193  0.00  0.00    +0.000 OA
ATOM     30  O   UNL     1       6.206  -5.401  29.630  0.00  0.00    +0.000 OA
BRANCH  28  31
ATOM     31  C   UNL     1       3.913  -5.722  28.460  0.00  0.00    +0.000 A 
ATOM     32  C   UNL     1       3.593  -4.671  29.487  0.00  0.00    +0.000 A 
ATOM     33  C   UNL     1       2.668  -3.502  29.343  0.00  0.00    +0.000 A 
ATOM     34  C   UNL     1       1.455  -3.857  30.173  0.00  0.00    +0.000 C 
ATOM     35  C   UNL     1       2.269  -3.510  27.912  0.00  0.00    +0.000 A 
ATOM     36  C   UNL     1       2.464  -4.227  26.725  0.00  0.00    +0.000 A 
ATOM     37  C   UNL     1       3.163  -5.581  27.238  0.00  0.00    +0.000 A 
ATOM     38  C   UNL     1       2.103  -6.683  26.897  0.00  0.00    +0.000 C 
ENDBRANCH  28  31
ENDBRANCH  25  28
ENDBRANCH   1  20
TORSDOF 5
ENDMDL
MODEL 2
REMARK VINA RESULT:      -8.2      0.971      1.425
REMARK  Name = 
REMARK  7 active torsions:
REMARK  status: ('A' for Active; 'I' for Inactive)
REMARK    1  A    between atoms: C_7  and  C_8
REMARK    2  A    between atoms: C_24  and  C_26
REMARK    3  A    between atoms: C_26  and  C_29
REMARK    4  A    between atoms: N_38  and  S_39
REMARK    5  A    between atoms: S_39  and  C_42
REMARK    6  A    between atoms: C_45  and  C_46
REMARK    7  A    between atoms: C_54  and  C_55
REMARK                            x       y       z     vdW  Elec       q    Type
REMARK                         _______ _______ _______ _____ _____    ______ ____
ROOT
ATOM      1  C   UNL     1       8.313  -3.014  22.208  0.00  0.00    +0.000 C 
ENDROOT
BRANCH   1  11
ATOM      2  C   UNL     1       8.482   1.578  21.300  0.00  0.00    +0.000 C 
ATOM      3  C   UNL     1       7.294   1.331  20.692  0.00  0.00    +0.000 A 
ATOM      4  C   UNL     1       6.096   1.820  20.386  0.00  0.00    +0.000 A 
ATOM      5  C   UNL     1       5.412   1.368  19.198  0.00  0.00    +0.000 A 
ATOM      6  C   UNL     1       5.630  -0.228  19.150  0.00  0.00    +0.000 A 
ATOM      7  C   UNL     1       6.539  -1.088  19.758  0.00  0.00    +0.000 A 
ATOM      8  C   UNL     1       6.751  -0.295  20.922  0.00  0.00    +0.000 A 
ATOM      9  C   UNL     1       7.296  -0.851  22.203  0.00  0.00    +0.000 C 
ATOM     10  N   UNL     1       8.689  -0.637  22.399  0.00  0.00    +0.000 N 
ATOM     11  C   UNL     1       9.249  -1.830  22.364  0.00  0.00    +0.000 C 
ATOM     12  O   UNL     1      10.407  -1.943  22.620  0.00  0.00    +0.000 OA
ATOM     13  C   UNL     1       9.258   0.304  21.575  0.00  0.00    +0.000 C 
BRANCH   2  17
ATOM     14  C   UNL     1       8.618   4.889  23.678  0.00  0.00    +0.000 A 
ATOM     15  C   UNL     1       7.306   4.447  23.086  0.00  0.00    +0.000 A 
ATOM     16  C   UNL     1       6.916   3.088  22.722  0.00  0.00    +0.000 A 
ATOM     17  C   UNL     1       8.125   2.171  22.728  0.00  0.00    +0.000 A 
ATOM     18  C   UNL     1       9.315   2.313  23.640  0.00  0.00    +0.000 A 
ATOM     19  C   UNL     1       9.483   3.767  24.110  0.00  0.00    +0.000 A 
ENDBRANCH   2  17
ENDBRANCH   1  11
BRANCH   1  20
ATOM     20  C   UNL     1       7.539  -3.601  23.319  0.00  0.00    +0.000 C 
ATOM     21  O   UNL     1       6.697  -4.535  22.940  0.00  0.00    +0.000 OA
ATOM     22  N   UNL     1       7.816  -3.650  24.678  0.00  0.00    +0.000 N 
ATOM     23  C   UNL     1       8.300  -5.019  25.090  0.00  0.00    +0.000 C 
ATOM     24  C   UNL     1       7.583  -5.541  26.304  0.00  0.00    +0.000 C 
ATOM     25  N   UNL     1       6.404  -4.812  26.643  0.00  0.00    +0.000 NA
ATOM     26  C   UNL     1       6.747  -3.496  26.917  0.00  0.00    +0.000 C 
ATOM     27  C   UNL     1       7.594  -2.839  25.804  0.00  0.00    +0.000 C 
BRANCH  25  28
ATOM     28  S   UNL     1       5.549  -5.410  27.873  0.00  0.00    +0.000 S 
ATOM     29  O   UNL     1       5.765  -6.927  27.790  0.00  0.00    +0.000 OA
ATOM     30  O   UNL     1       6.025  -5.022  29.165  0.00  0.00    +0.000 OA
BRANCH  28  31
ATOM     31  C   UNL     1       3.850  -5.304  27.781  0.00  0.00    +0.000 A 
ATOM     32  C   UNL     1       3.580  -4.352  26.648  0.00  0.00    +0.000 A 
ATOM     33  C   UNL     1       2.691  -4.568  25.462  0.00  0.00    +0.000 A 
ATOM     34  C   UNL     1       1.481  -3.698  25.716  0.00  0.00    +0.000 C 
ATOM     35  C   UNL     1       2.270  -5.989  25.561  0.00  0.00    +0.000 A 
ATOM     36  C   UNL     1       2.422  -7.123  26.368  0.00  0.00    +0.000 A 
ATOM     37  C   UNL     1       3.085  -6.523  27.703  0.00  0.00    +0.000 A 
ATOM     38  C   UNL     1       1.985  -6.769  28.792  0.00  0.00    +0.000 C 
ENDBRANCH  28  31
ENDBRANCH  25  28
ENDBRANCH   1  20
TORSDOF 5
ENDMDL
MODEL 3
REMARK VINA RESULT:      -7.9      1.983      2.730
REMARK  Name = 
REMARK  7 active torsions:
REMARK  status: ('A' for Active; 'I' for Inactive)
REMARK    1  A    between atoms: C_7  and  C_8
REMARK    2  A    between atoms: C_24  and  C_26
REMARK    3  A    between atoms: C_26  and  C_29
REMARK    4  A    between atoms: N_38  and  S_39
REMARK    5  A    between atoms: S_39  and  C_42
REMARK    6  A    between atoms: C_45  and  C_46
REMARK    7  A    between atoms: C_54  and  C_55
REMARK                            x       y       z     vdW  Elec       q    Type
REMARK                         _______ _______ _______ _____ _____    ______ ____
ROOT
ATOM      1  C   UNL     1       8.214  -3.031  22.101  0.00  0.00    +0.000 C 
ENDROOT
BRANCH   1  11
ATOM      2  C   UNL     1       8.121   1.621  21.567  0.00  0.00    +0.000 C 
ATOM      3  C   UNL     1       7.110   1.334  20.708  0.00  0.00    +0.000 A 
ATOM      4  C   UNL     1       5.958   1.751  20.193  0.00  0.00    +0.000 A 
ATOM      5  C   UNL     1       5.575   1.352  18.860  0.00  0.00    +0.000 A 
ATOM      6  C   UNL     1       5.950  -0.211  18.749  0.00  0.00    +0.000 A 
ATOM      7  C   UNL     1       6.796  -1.046  19.472  0.00  0.00    +0.000 A 
ATOM      8  C   UNL     1       6.691  -0.343  20.707  0.00  0.00    +0.000 A 
ATOM      9  C   UNL     1       7.016  -0.964  22.032  0.00  0.00    +0.000 C 
ATOM     10  N   UNL     1       8.313  -0.658  22.529  0.00  0.00    +0.000 N 
ATOM     11  C   UNL     1       8.981  -1.795  22.530  0.00  0.00    +0.000 C 
ATOM     12  O   UNL     1      10.068  -1.837  23.014  0.00  0.00    +0.000 OA
ATOM     13  C   UNL     1       8.944   0.394  21.910  0.00  0.00    +0.000 C 
BRANCH   2  17
ATOM     14  C   UNL     1       7.907   4.509  24.439  0.00  0.00    +0.000 A 
ATOM     15  C   UNL     1       6.785   4.358  23.445  0.00  0.00    +0.000 A 
ATOM     16  C   UNL     1       6.378   3.138  22.755  0.00  0.00    +0.000 A 
ATOM     17  C   UNL     1       7.428   2.056  22.927  0.00  0.00    +0.000 A 
ATOM     18  C   UNL     1       8.307   1.887  24.137  0.00  0.00    +0.000 A 
ATOM     19  C   UNL     1       8.483   3.219  24.885  0.00  0.00    +0.000 A 
ENDBRANCH   2  17
ENDBRANCH   1  11
BRANCH   1  20
ATOM     20  C   UNL     1       7.330  -3.802  22.996  0.00  0.00    +0.000 C 
ATOM     21  O   UNL     1       7.497  -3.526  24.270  0.00  0.00    +0.000 OA
ATOM     22  N   UNL     1       6.119  -4.429  22.740  0.00  0.00    +0.000 N 
ATOM     23  C   UNL     1       4.961  -3.626  23.279  0.00  0.00    +0.000 C 
ATOM     24  C   UNL     1       4.005  -4.463  24.082  0.00  0.00    +0.000 C 
ATOM     25  N   UNL     1       4.513  -5.749  24.438  0.00  0.00    +0.000 NA
ATOM     26  C   UNL     1       4.795  -6.461  23.282  0.00  0.00    +0.000 C 
ATOM     27  C   UNL     1       5.687  -5.687  22.287  0.00  0.00    +0.000 C 
BRANCH  25  28
ATOM     28  S   UNL     1       3.558  -6.630  25.393  0.00  0.00    +0.000 S 
ATOM     29  O   UNL     1       2.149  -6.076  25.148  0.00  0.00    +0.000 OA
ATOM     30  O   UNL     1       3.495  -8.016  25.044  0.00  0.00    +0.000 OA
BRANCH  28  31
ATOM     31  C   UNL     1       3.716  -6.422  27.078  0.00  0.00    +0.000 A 
ATOM     32  C   UNL     1       5.167  -6.693  27.370  0.00  0.00    +0.000 A 
ATOM     33  C   UNL     1       6.128  -5.823  28.120  0.00  0.00    +0.000 A 
ATOM     34  C   UNL     1       6.330  -6.517  29.448  0.00  0.00    +0.000 C 
ATOM     35  C   UNL     1       5.384  -4.561  28.364  0.00  0.00    +0.000 A 
ATOM     36  C   UNL     1       4.138  -3.963  28.137  0.00  0.00    +0.000 A 
ATOM     37  C   UNL     1       3.228  -5.204  27.672  0.00  0.00    +0.000 A 
ATOM     38  C   UNL     1       2.168  -5.321  28.820  0.00  0.00    +0.000 C 
ENDBRANCH  28  31
ENDBRANCH  25  28
ENDBRANCH   1  20
TORSDOF 5
ENDMDL
MODEL 4
REMARK VINA RESULT:      -7.9      1.814      2.294
REMARK  Name = 
REMARK  7 active torsions:
REMARK  status: ('A' for Active; 'I' for Inactive)
REMARK    1  A    between atoms: C_7  and  C_8
REMARK    2  A    between atoms: C_24  and  C_26
REMARK    3  A    between atoms: C_26  and  C_29
REMARK    4  A    between atoms: N_38  and  S_39
REMARK    5  A    between atoms: S_39  and  C_42
REMARK    6  A    between atoms: C_45  and  C_46
REMARK    7  A    between atoms: C_54  and  C_55
REMARK                            x       y       z     vdW  Elec       q    Type
REMARK                         _______ _______ _______ _____ _____    ______ ____
ROOT
ATOM      1  C   UNL     1       9.620  -1.596  24.213  0.00  0.00    +0.000 C 
ENDROOT
BRANCH   1  11
ATOM      2  C   UNL     1       8.489   2.618  22.510  0.00  0.00    +0.000 C 
ATOM      3  C   UNL     1       7.699   1.886  21.684  0.00  0.00    +0.000 A 
ATOM      4  C   UNL     1       6.559   1.854  21.001  0.00  0.00    +0.000 A 
ATOM      5  C   UNL     1       6.463   1.076  19.789  0.00  0.00    +0.000 A 
ATOM      6  C   UNL     1       7.212  -0.315  20.106  0.00  0.00    +0.000 A 
ATOM      7  C   UNL     1       8.130  -0.709  21.074  0.00  0.00    +0.000 A 
ATOM      8  C   UNL     1       7.697   0.202  22.080  0.00  0.00    +0.000 A 
ATOM      9  C   UNL     1       7.983   0.009  23.539  0.00  0.00    +0.000 C 
ATOM     10  N   UNL     1       9.091   0.752  24.031  0.00  0.00    +0.000 N 
ATOM     11  C   UNL     1      10.005  -0.137  24.367  0.00  0.00    +0.000 C 
ATOM     12  O   UNL     1      10.997   0.221  24.921  0.00  0.00    +0.000 OA
ATOM     13  C   UNL     1       9.528   1.763  23.211  0.00  0.00    +0.000 C 
BRANCH   2  17
ATOM     14  C   UNL     1       7.451   5.858  24.760  0.00  0.00    +0.000 A 
ATOM     15  C   UNL     1       6.531   5.380  23.667  0.00  0.00    +0.000 A 
ATOM     16  C   UNL     1       6.398   4.019  23.159  0.00  0.00    +0.000 A 
ATOM     17  C   UNL     1       7.537   3.151  23.663  0.00  0.00    +0.000 A 
ATOM     18  C   UNL     1       8.227   3.314  24.992  0.00  0.00    +0.000 A 
ATOM     19  C   UNL     1       8.109   4.759  25.504  0.00  0.00    +0.000 A 
ENDBRANCH   2  17
ENDBRANCH   1  11
BRANCH   1  20
ATOM     20  C   UNL     1       8.939  -2.382  25.262  0.00  0.00    +0.000 C 
ATOM     21  O   UNL     1       8.968  -1.816  26.447  0.00  0.00    +0.000 OA
ATOM     22  N   UNL     1       7.958  -3.356  25.158  0.00  0.00    +0.000 N 
ATOM     23  C   UNL     1       6.602  -2.811  25.533  0.00  0.00    +0.000 C 
ATOM     24  C   UNL     1       5.875  -3.697  26.505  0.00  0.00    +0.000 C 
ATOM     25  N   UNL     1       6.696  -4.692  27.115  0.00  0.00    +0.000 NA
ATOM     26  C   UNL     1       7.213  -5.519  26.129  0.00  0.00    +0.000 C 
ATOM     27  C   UNL     1       7.905  -4.749  24.982  0.00  0.00    +0.000 C 
BRANCH  25  28
ATOM     28  S   UNL     1       5.976  -5.588  28.245  0.00  0.00    +0.000 S 
ATOM     29  O   UNL     1       7.046  -6.599  28.677  0.00  0.00    +0.000 OA
ATOM     30  O   UNL     1       5.623  -4.868  29.430  0.00  0.00    +0.000 OA
BRANCH  28  31
ATOM     31  C   UNL     1       4.714  -6.621  27.749  0.00  0.00    +0.000 A 
ATOM     32  C   UNL     1       3.915  -6.888  28.996  0.00  0.00    +0.000 A 
ATOM     33  C   UNL     1       2.440  -6.724  29.191  0.00  0.00    +0.000 A 
ATOM     34  C   UNL     1       1.892  -8.132  29.235  0.00  0.00    +0.000 C 
ATOM     35  C   UNL     1       1.963  -6.080  27.940  0.00  0.00    +0.000 A 
ATOM     36  C   UNL     1       2.426  -5.612  26.704  0.00  0.00    +0.000 A 
ATOM     37  C   UNL     1       3.906  -6.233  26.621  0.00  0.00    +0.000 A 
ATOM     38  C   UNL     1       3.812  -7.223  25.410  0.00  0.00    +0.000 C 
ENDBRANCH  28  31
ENDBRANCH  25  28
ENDBRANCH   1  20
TORSDOF 5
ENDMDL
MODEL 5
REMARK VINA RESULT:      -6.7      1.443      2.212
REMARK  Name = 
REMARK  7 active torsions:
REMARK  status: ('A' for Active; 'I' for Inactive)
REMARK    1  A    between atoms: C_7  and  C_8
REMARK    2  A    between atoms: C_24  and  C_26
REMARK    3  A    between atoms: C_26  and  C_29
REMARK    4  A    between atoms: N_38  and  S_39
REMARK    5  A    between atoms: S_39  and  C_42
REMARK    6  A    between atoms: C_45  and  C_46
REMARK    7  A    between atoms: C_54  and  C_55
REMARK                            x       y       z     vdW  Elec       q    Type
REMARK                         _______ _______ _______ _____ _____    ______ ____
ROOT
ATOM      1  C   UNL     1       8.139  -2.719  22.975  0.00  0.00    +0.000 C 
ENDROOT
BRANCH   1  11
ATOM      2  C   UNL     1       8.438   1.683  21.401  0.00  0.00    +0.000 C 
ATOM      3  C   UNL     1       7.323   1.333  20.710  0.00  0.00    +0.000 A 
ATOM      4  C   UNL     1       6.170   1.757  20.202  0.00  0.00    +0.000 A 
ATOM      5  C   UNL     1       5.618   1.123  19.029  0.00  0.00    +0.000 A 
ATOM      6  C   UNL     1       5.830  -0.459  19.250  0.00  0.00    +0.000 A 
ATOM      7  C   UNL     1       6.661  -1.207  20.078  0.00  0.00    +0.000 A 
ATOM      8  C   UNL     1       6.747  -0.244  21.124  0.00  0.00    +0.000 A 
ATOM      9  C   UNL     1       7.143  -0.592  22.527  0.00  0.00    +0.000 C 
ATOM     10  N   UNL     1       8.507  -0.336  22.841  0.00  0.00    +0.000 N 
ATOM     11  C   UNL     1       9.060  -1.515  23.051  0.00  0.00    +0.000 C 
ATOM     12  O   UNL     1      10.181  -1.576  23.447  0.00  0.00    +0.000 OA
ATOM     13  C   UNL     1       9.170   0.474  21.952  0.00  0.00    +0.000 C 
BRANCH   2  17
ATOM     14  C   UNL     1       8.612   5.223  23.419  0.00  0.00    +0.000 A 
ATOM     15  C   UNL     1       7.370   4.863  22.646  0.00  0.00    +0.000 A 
ATOM     16  C   UNL     1       6.870   3.522  22.356  0.00  0.00    +0.000 A 
ATOM     17  C   UNL     1       7.929   2.482  22.674  0.00  0.00    +0.000 A 
ATOM     18  C   UNL     1       8.957   2.599  23.768  0.00  0.00    +0.000 A 
ATOM     19  C   UNL     1       9.235   4.072  24.112  0.00  0.00    +0.000 A 
ENDBRANCH   2  17
ENDBRANCH   1  11
BRANCH   1  20
ATOM     20  C   UNL     1       7.086  -3.011  23.967  0.00  0.00    +0.000 C 
ATOM     21  O   UNL     1       6.498  -4.172  23.785  0.00  0.00    +0.000 OA
ATOM     22  N   UNL     1       6.892  -2.508  25.244  0.00  0.00    +0.000 N 
ATOM     23  C   UNL     1       7.317  -3.503  26.296  0.00  0.00    +0.000 C 
ATOM     24  C   UNL     1       6.277  -3.687  27.366  0.00  0.00    +0.000 C 
ATOM     25  N   UNL     1       4.998  -3.146  27.037  0.00  0.00    +0.000 NA
ATOM     26  C   UNL     1       5.123  -1.780  26.832  0.00  0.00    +0.000 C 
ATOM     27  C   UNL     1       6.239  -1.410  25.830  0.00  0.00    +0.000 C 
BRANCH  25  28
ATOM     28  S   UNL     1       3.830  -3.423  28.113  0.00  0.00    +0.000 S 
ATOM     29  O   UNL     1       4.543  -3.398  29.471  0.00  0.00    +0.000 OA
ATOM     30  O   UNL     1       2.835  -2.396  28.179  0.00  0.00    +0.000 OA
BRANCH  28  31
ATOM     31  C   UNL     1       3.122  -4.973  28.131  0.00  0.00    +0.000 A 
ATOM     32  C   UNL     1       2.540  -5.152  26.755  0.00  0.00    +0.000 A 
ATOM     33  C   UNL     1       2.759  -6.292  25.809  0.00  0.00    +0.000 A 
ATOM     34  C   UNL     1       1.464  -7.071  25.827  0.00  0.00    +0.000 C 
ATOM     35  C   UNL     1       3.808  -7.122  26.454  0.00  0.00    +0.000 A 
ATOM     36  C   UNL     1       4.605  -7.180  27.604  0.00  0.00    +0.000 A 
ATOM     37  C   UNL     1       3.919  -6.091  28.568  0.00  0.00    +0.000 A 
ATOM     38  C   UNL     1       3.380  -6.956  29.759  0.00  0.00    +0.000 C 
ENDBRANCH  28  31
ENDBRANCH  25  28
ENDBRANCH   1  20
TORSDOF 5
ENDMDL
MODEL 6
REMARK VINA RESULT:      -6.6      2.591      9.328
REMARK  Name = 
REMARK  7 active torsions:
REMARK  status: ('A' for Active; 'I' for Inactive)
REMARK    1  A    between atoms: C_7  and  C_8
REMARK    2  A    between atoms: C_24  and  C_26
REMARK    3  A    between atoms: C_26  and  C_29
REMARK    4  A    between atoms: N_38  and  S_39
REMARK    5  A    between atoms: S_39  and  C_42
REMARK    6  A    between atoms: C_45  and  C_46
REMARK    7  A    between atoms: C_54  and  C_55
REMARK                            x       y       z     vdW  Elec       q    Type
REMARK                         _______ _______ _______ _____ _____    ______ ____
ROOT
ATOM      1  C   UNL     1       7.384  -4.469  24.865  0.00  0.00    +0.000 C 
ENDROOT
BRANCH   1  11
ATOM      2  C   UNL     1       4.703  -4.393  28.705  0.00  0.00    +0.000 C 
ATOM      3  C   UNL     1       4.111  -3.352  28.067  0.00  0.00    +0.000 A 
ATOM      4  C   UNL     1       2.974  -2.693  27.865  0.00  0.00    +0.000 A 
ATOM      5  C   UNL     1       2.999  -1.281  27.566  0.00  0.00    +0.000 A 
ATOM      6  C   UNL     1       4.206  -1.080  26.517  0.00  0.00    +0.000 A 
ATOM      7  C   UNL     1       5.313  -1.849  26.172  0.00  0.00    +0.000 A 
ATOM      8  C   UNL     1       4.724  -3.112  26.468  0.00  0.00    +0.000 A 
ATOM      9  C   UNL     1       5.233  -4.405  25.905  0.00  0.00    +0.000 C 
ATOM     10  N   UNL     1       6.078  -5.143  26.780  0.00  0.00    +0.000 N 
ATOM     11  C   UNL     1       7.271  -5.143  26.220  0.00  0.00    +0.000 C 
ATOM     12  O   UNL     1       8.145  -5.797  26.697  0.00  0.00    +0.000 OA
ATOM     13  C   UNL     1       6.046  -4.747  28.095  0.00  0.00    +0.000 C 
BRANCH   2  17
ATOM     14  C   UNL     1       1.811  -6.812  30.263  0.00  0.00    +0.000 A 
ATOM     15  C   UNL     1       1.455  -5.813  29.193  0.00  0.00    +0.000 A 
ATOM     16  C   UNL     1       2.329  -5.292  28.147  0.00  0.00    +0.000 A 
ATOM     17  C   UNL     1       3.775  -5.653  28.436  0.00  0.00    +0.000 A 
ATOM     18  C   UNL     1       4.231  -6.904  29.140  0.00  0.00    +0.000 A 
ATOM     19  C   UNL     1       3.129  -7.457  30.057  0.00  0.00    +0.000 A 
ENDBRANCH   2  17
ENDBRANCH   1  11
BRANCH   1  20
ATOM     20  C   UNL     1       7.836  -3.077  24.675  0.00  0.00    +0.000 C 
ATOM     21  O   UNL     1       8.644  -2.650  25.620  0.00  0.00    +0.000 OA
ATOM     22  N   UNL     1       7.904  -2.305  23.525  0.00  0.00    +0.000 N 
ATOM     23  C   UNL     1       9.322  -2.197  23.020  0.00  0.00    +0.000 C 
ATOM     24  C   UNL     1       9.716  -0.779  22.711  0.00  0.00    +0.000 C 
ATOM     25  N   UNL     1       8.818   0.202  23.230  0.00  0.00    +0.000 NA
ATOM     26  C   UNL     1       7.563   0.006  22.675  0.00  0.00    +0.000 C 
ATOM     27  C   UNL     1       7.052  -1.446  22.809  0.00  0.00    +0.000 C 
BRANCH  25  28
ATOM     28  S   UNL     1       9.268   1.735  23.013  0.00  0.00    +0.000 S 
ATOM     29  O   UNL     1      10.530   1.892  23.870  0.00  0.00    +0.000 OA
ATOM     30  O   UNL     1       9.667   2.048  21.676  0.00  0.00    +0.000 OA
BRANCH  28  31
ATOM     31  C   UNL     1       8.265   2.952  23.661  0.00  0.00    +0.000 A 
ATOM     32  C   UNL     1       9.180   3.812  24.490  0.00  0.00    +0.000 A 
ATOM     33  C   UNL     1       9.350   5.298  24.423  0.00  0.00    +0.000 A 
ATOM     34  C   UNL     1       8.676   5.825  25.670  0.00  0.00    +0.000 C 
ATOM     35  C   UNL     1       8.545   5.718  23.248  0.00  0.00    +0.000 A 
ATOM     36  C   UNL     1       7.718   5.197  22.245  0.00  0.00    +0.000 A 
ATOM     37  C   UNL     1       7.425   3.704  22.764  0.00  0.00    +0.000 A 
ATOM     38  C   UNL     1       5.882   3.718  23.042  0.00  0.00    +0.000 C 
ENDBRANCH  28  31
ENDBRANCH  25  28
ENDBRANCH   1  20
TORSDOF 5
ENDMDL
MODEL 7
REMARK VINA RESULT:      -6.5      1.621      2.546
REMARK  Name = 
REMARK  7 active torsions:
REMARK  status: ('A' for Active; 'I' for Inactive)
REMARK    1  A    between atoms: C_7  and  C_8
REMARK    2  A    between atoms: C_24  and  C_26
REMARK    3  A    between atoms: C_26  and  C_29
REMARK    4  A    between atoms: N_38  and  S_39
REMARK    5  A    between atoms: S_39  and  C_42
REMARK    6  A    between atoms: C_45  and  C_46
REMARK    7  A    between atoms: C_54  and  C_55
REMARK                            x       y       z     vdW  Elec       q    Type
REMARK                         _______ _______ _______ _____ _____    ______ ____
ROOT
ATOM      1  C   UNL     1       7.570  -2.007  21.752  0.00  0.00    +0.000 C 
ENDROOT
BRANCH   1  11
ATOM      2  C   UNL     1       9.617   2.135  22.521  0.00  0.00    +0.000 C 
ATOM      3  C   UNL     1       8.350   2.599  22.376  0.00  0.00    +0.000 A 
ATOM      4  C   UNL     1       7.472   3.524  22.750  0.00  0.00    +0.000 A 
ATOM      5  C   UNL     1       6.428   3.940  21.843  0.00  0.00    +0.000 A 
ATOM      6  C   UNL     1       5.882   2.587  21.159  0.00  0.00    +0.000 A 
ATOM      7  C   UNL     1       6.403   1.305  21.024  0.00  0.00    +0.000 A 
ATOM      8  C   UNL     1       7.188   1.329  22.213  0.00  0.00    +0.000 A 
ATOM      9  C   UNL     1       7.672   0.087  22.899  0.00  0.00    +0.000 C 
ATOM     10  N   UNL     1       9.016  -0.271  22.602  0.00  0.00    +0.000 N 
ATOM     11  C   UNL     1       8.952  -1.408  21.937  0.00  0.00    +0.000 C 
ATOM     12  O   UNL     1       9.956  -1.988  21.668  0.00  0.00    +0.000 OA
ATOM     13  C   UNL     1       9.767   0.715  22.010  0.00  0.00    +0.000 C 
BRANCH   2  17
ATOM     14  C   UNL     1       8.876   0.001  25.917  0.00  0.00    +0.000 A 
ATOM     15  C   UNL     1      10.241  -0.053  25.282  0.00  0.00    +0.000 A 
ATOM     16  C   UNL     1      10.881   0.983  24.478  0.00  0.00    +0.000 A 
ATOM     17  C   UNL     1       9.872   2.047  24.085  0.00  0.00    +0.000 A 
ATOM     18  C   UNL     1       8.690   2.469  24.917  0.00  0.00    +0.000 A 
ATOM     19  C   UNL     1       8.251   1.343  25.868  0.00  0.00    +0.000 A 
ENDBRANCH   2  17
ENDBRANCH   1  11
BRANCH   1  20
ATOM     20  C   UNL     1       6.862  -2.778  22.793  0.00  0.00    +0.000 C 
ATOM     21  O   UNL     1       5.554  -2.702  22.708  0.00  0.00    +0.000 OA
ATOM     22  N   UNL     1       7.287  -3.857  23.554  0.00  0.00    +0.000 N 
ATOM     23  C   UNL     1       6.698  -5.151  23.047  0.00  0.00    +0.000 C 
ATOM     24  C   UNL     1       6.096  -5.979  24.149  0.00  0.00    +0.000 C 
ATOM     25  N   UNL     1       5.918  -5.275  25.377  0.00  0.00    +0.000 NA
ATOM     26  C   UNL     1       7.153  -4.840  25.833  0.00  0.00    +0.000 C 
ATOM     27  C   UNL     1       7.958  -4.058  24.772  0.00  0.00    +0.000 C 
BRANCH  25  28
ATOM     28  S   UNL     1       5.173  -6.099  26.546  0.00  0.00    +0.000 S 
ATOM     29  O   UNL     1       4.431  -7.223  25.813  0.00  0.00    +0.000 OA
ATOM     30  O   UNL     1       6.058  -6.752  27.461  0.00  0.00    +0.000 OA
BRANCH  28  31
ATOM     31  C   UNL     1       3.894  -5.326  27.367  0.00  0.00    +0.000 A 
ATOM     32  C   UNL     1       4.547  -4.597  28.509  0.00  0.00    +0.000 A 
ATOM     33  C   UNL     1       4.407  -3.151  28.873  0.00  0.00    +0.000 A 
ATOM     34  C   UNL     1       3.549  -3.143  30.118  0.00  0.00    +0.000 C 
ATOM     35  C   UNL     1       3.618  -2.558  27.762  0.00  0.00    +0.000 A 
ATOM     36  C   UNL     1       2.993  -2.901  26.558  0.00  0.00    +0.000 A 
ATOM     37  C   UNL     1       2.982  -4.508  26.608  0.00  0.00    +0.000 A 
ATOM     38  C   UNL     1       1.455  -4.854  26.678  0.00  0.00    +0.000 C 
ENDBRANCH  28  31
ENDBRANCH  25  28
ENDBRANCH   1  20
TORSDOF 5
ENDMDL
MODEL 8
REMARK VINA RESULT:      -6.4      3.630      9.312
REMARK  Name = 
REMARK  7 active torsions:
REMARK  status: ('A' for Active; 'I' for Inactive)
REMARK    1  A    between atoms: C_7  and  C_8
REMARK    2  A    between atoms: C_24  and  C_26
REMARK    3  A    between atoms: C_26  and  C_29
REMARK    4  A    between atoms: N_38  and  S_39
REMARK    5  A    between atoms: S_39  and  C_42
REMARK    6  A    between atoms: C_45  and  C_46
REMARK    7  A    between atoms: C_54  and  C_55
REMARK                            x       y       z     vdW  Elec       q    Type
REMARK                         _______ _______ _______ _____ _____    ______ ____
ROOT
ATOM      1  C   UNL     1       6.362  -2.484  26.846  0.00  0.00    +0.000 C 
ENDROOT
BRANCH   1  11
ATOM      2  C   UNL     1       3.745  -5.392  24.269  0.00  0.00    +0.000 C 
ATOM      3  C   UNL     1       4.868  -5.460  23.510  0.00  0.00    +0.000 A 
ATOM      4  C   UNL     1       5.613  -6.227  22.719  0.00  0.00    +0.000 A 
ATOM      5  C   UNL     1       6.406  -5.631  21.671  0.00  0.00    +0.000 A 
ATOM      6  C   UNL     1       7.074  -4.318  22.325  0.00  0.00    +0.000 A 
ATOM      7  C   UNL     1       6.779  -3.552  23.448  0.00  0.00    +0.000 A 
ATOM      8  C   UNL     1       6.201  -4.608  24.210  0.00  0.00    +0.000 A 
ATOM      9  C   UNL     1       6.065  -4.562  25.702  0.00  0.00    +0.000 C 
ATOM     10  N   UNL     1       4.778  -4.176  26.170  0.00  0.00    +0.000 N 
ATOM     11  C   UNL     1       4.942  -3.012  26.768  0.00  0.00    +0.000 C 
ATOM     12  O   UNL     1       4.030  -2.520  27.354  0.00  0.00    +0.000 OA
ATOM     13  C   UNL     1       3.777  -4.219  25.231  0.00  0.00    +0.000 C 
BRANCH   2  17
ATOM     14  C   UNL     1       1.455  -8.019  26.388  0.00  0.00    +0.000 A 
ATOM     15  C   UNL     1       2.065  -8.445  25.079  0.00  0.00    +0.000 A 
ATOM     16  C   UNL     1       3.295  -7.943  24.474  0.00  0.00    +0.000 A 
ATOM     17  C   UNL     1       3.761  -6.687  25.187  0.00  0.00    +0.000 A 
ATOM     18  C   UNL     1       3.559  -6.396  26.650  0.00  0.00    +0.000 A 
ATOM     19  C   UNL     1       2.342  -7.157  27.203  0.00  0.00    +0.000 A 
ENDBRANCH   2  17
ENDBRANCH   1  11
BRANCH   1  20
ATOM     20  C   UNL     1       6.742  -1.096  26.521  0.00  0.00    +0.000 C 
ATOM     21  O   UNL     1       7.439  -0.985  25.413  0.00  0.00    +0.000 OA
ATOM     22  N   UNL     1       6.175   0.106  26.919  0.00  0.00    +0.000 N 
ATOM     23  C   UNL     1       5.346   0.713  25.814  0.00  0.00    +0.000 C 
ATOM     24  C   UNL     1       5.663   2.166  25.589  0.00  0.00    +0.000 C 
ATOM     25  N   UNL     1       6.864   2.605  26.223  0.00  0.00    +0.000 NA
ATOM     26  C   UNL     1       6.745   2.430  27.593  0.00  0.00    +0.000 C 
ATOM     27  C   UNL     1       6.310   1.002  27.993  0.00  0.00    +0.000 C 
BRANCH  25  28
ATOM     28  S   UNL     1       7.294   4.128  25.912  0.00  0.00    +0.000 S 
ATOM     29  O   UNL     1       5.973   4.848  25.610  0.00  0.00    +0.000 OA
ATOM     30  O   UNL     1       7.864   4.818  27.028  0.00  0.00    +0.000 OA
BRANCH  28  31
ATOM     31  C   UNL     1       8.176   4.425  24.483  0.00  0.00    +0.000 A 
ATOM     32  C   UNL     1       9.247   3.369  24.459  0.00  0.00    +0.000 A 
ATOM     33  C   UNL     1       9.573   2.421  23.347  0.00  0.00    +0.000 A 
ATOM     34  C   UNL     1      10.874   2.930  22.768  0.00  0.00    +0.000 C 
ATOM     35  C   UNL     1       8.502   2.636  22.341  0.00  0.00    +0.000 A 
ATOM     36  C   UNL     1       7.354   3.405  22.110  0.00  0.00    +0.000 A 
ATOM     37  C   UNL     1       7.457   4.544  23.240  0.00  0.00    +0.000 A 
ATOM     38  C   UNL     1       7.642   5.859  22.408  0.00  0.00    +0.000 C 
ENDBRANCH  28  31
ENDBRANCH  25  28
ENDBRANCH   1  20
TORSDOF 5
ENDMDL
MODEL 9
REMARK VINA RESULT:      -6.4      2.527      9.077
REMARK  Name = 
REMARK  7 active torsions:
REMARK  status: ('A' for Active; 'I' for Inactive)
REMARK    1  A    between atoms: C_7  and  C_8
REMARK    2  A    between atoms: C_24  and  C_26
REMARK    3  A    between atoms: C_26  and  C_29
REMARK    4  A    between atoms: N_38  and  S_39
REMARK    5  A    between atoms: S_39  and  C_42
REMARK    6  A    between atoms: C_45  and  C_46
REMARK    7  A    between atoms: C_54  and  C_55
REMARK                            x       y       z     vdW  Elec       q    Type
REMARK                         _______ _______ _______ _____ _____    ______ ____
ROOT
ATOM      1  C   UNL     1       7.177  -3.555  26.831  0.00  0.00    +0.000 C 
ENDROOT
BRANCH   1  11
ATOM      2  C   UNL     1       3.805  -6.806  26.921  0.00  0.00    +0.000 C 
ATOM      3  C   UNL     1       3.156  -5.871  27.660  0.00  0.00    +0.000 A 
ATOM      4  C   UNL     1       1.975  -5.351  27.978  0.00  0.00    +0.000 A 
ATOM      5  C   UNL     1       1.770  -4.761  29.279  0.00  0.00    +0.000 A 
ATOM      6  C   UNL     1       3.099  -3.901  29.581  0.00  0.00    +0.000 A 
ATOM      7  C   UNL     1       4.387  -3.914  29.056  0.00  0.00    +0.000 A 
ATOM      8  C   UNL     1       4.022  -4.378  27.759  0.00  0.00    +0.000 A 
ATOM      9  C   UNL     1       4.891  -4.197  26.551  0.00  0.00    +0.000 C 
ATOM     10  N   UNL     1       5.671  -5.336  26.204  0.00  0.00    +0.000 N 
ATOM     11  C   UNL     1       6.929  -4.988  26.396  0.00  0.00    +0.000 C 
ATOM     12  O   UNL     1       7.800  -5.729  26.067  0.00  0.00    +0.000 OA
ATOM     13  C   UNL     1       5.289  -6.511  26.803  0.00  0.00    +0.000 C 
BRANCH   2  17
ATOM     14  C   UNL     1       3.959  -4.661  23.455  0.00  0.00    +0.000 A 
ATOM     15  C   UNL     1       4.590  -6.027  23.518  0.00  0.00    +0.000 A 
ATOM     16  C   UNL     1       4.196  -7.142  24.374  0.00  0.00    +0.000 A 
ATOM     17  C   UNL     1       3.232  -6.671  25.447  0.00  0.00    +0.000 A 
ATOM     18  C   UNL     1       2.233  -5.555  25.284  0.00  0.00    +0.000 A 
ATOM     19  C   UNL     1       2.683  -4.562  24.201  0.00  0.00    +0.000 A 
ENDBRANCH   2  17
ENDBRANCH   1  11
BRANCH   1  20
ATOM     20  C   UNL     1       7.523  -2.462  25.902  0.00  0.00    +0.000 C 
ATOM     21  O   UNL     1       8.216  -1.496  26.459  0.00  0.00    +0.000 OA
ATOM     22  N   UNL     1       7.614  -2.457  24.518  0.00  0.00    +0.000 N 
ATOM     23  C   UNL     1       9.053  -2.487  24.063  0.00  0.00    +0.000 C 
ATOM     24  C   UNL     1       9.348  -1.445  23.020  0.00  0.00    +0.000 C 
ATOM     25  N   UNL     1       8.333  -0.451  22.885  0.00  0.00    +0.000 NA
ATOM     26  C   UNL     1       7.146  -1.062  22.514  0.00  0.00    +0.000 C 
ATOM     27  C   UNL     1       6.751  -2.242  23.430  0.00  0.00    +0.000 C 
BRANCH  25  28
ATOM     28  S   UNL     1       8.667   0.744  21.855  0.00  0.00    +0.000 S 
ATOM     29  O   UNL     1      10.194   0.713  21.709  0.00  0.00    +0.000 OA
ATOM     30  O   UNL     1       8.148   0.546  20.537  0.00  0.00    +0.000 OA
BRANCH  28  31
ATOM     31  C   UNL     1       8.411   2.343  22.388  0.00  0.00    +0.000 A 
ATOM     32  C   UNL     1       6.932   2.573  22.233  0.00  0.00    +0.000 A 
ATOM     33  C   UNL     1       5.970   3.072  23.266  0.00  0.00    +0.000 A 
ATOM     34  C   UNL     1       5.647   4.489  22.848  0.00  0.00    +0.000 C 
ATOM     35  C   UNL     1       6.759   3.128  24.523  0.00  0.00    +0.000 A 
ATOM     36  C   UNL     1       8.046   2.884  25.019  0.00  0.00    +0.000 A 
ATOM     37  C   UNL     1       8.921   2.730  23.679  0.00  0.00    +0.000 A 
ATOM     38  C   UNL     1       9.897   3.955  23.745  0.00  0.00    +0.000 C 
ENDBRANCH  28  31
ENDBRANCH  25  28
ENDBRANCH   1  20
TORSDOF 5
ENDMDL
