MODEL 1
REMARK VINA RESULT:      -8.9      0.000      0.000
REMARK  Name = 
REMARK  5 active torsions:
REMARK  status: ('A' for Active; 'I' for Inactive)
REMARK    1  A    between atoms: O_2  and  C_3
REMARK    2  A    between atoms: C_12  and  N_13
REMARK    3  A    between atoms: C_15  and  C_17
REMARK    4  A    between atoms: N_25  and  N_26
REMARK    5  A    between atoms: C_40  and  C_42
REMARK                            x       y       z     vdW  Elec       q    Type
REMARK                         _______ _______ _______ _____ _____    ______ ____
ROOT
ATOM      1  C   UNL     1       7.929  -2.526  26.014  0.00  0.00    +0.000 C 
ATOM      2  C   UNL     1       6.897  -1.495  25.645  0.00  0.00    +0.000 C 
ATOM      3  C   UNL     1       7.021  -0.955  24.255  0.00  0.00    +0.000 C 
ATOM      4  N   UNL     1       8.074  -1.510  23.482  0.00  0.00    +0.000 NA
ATOM      5  C   UNL     1       9.306  -1.434  24.197  0.00  0.00    +0.000 C 
ATOM      6  C   UNL     1       9.291  -2.161  25.519  0.00  0.00    +0.000 C 
ENDROOT
BRANCH   4   7
ATOM      7  N   UNL     1       8.111  -1.221  22.182  0.00  0.00    +0.000 NA
ATOM      8  C   UNL     1       6.904  -1.532  21.316  0.00  0.00    +0.000 C 
ATOM      9  C   UNL     1       6.481  -0.702  20.593  0.00  0.00    +0.000 A 
ATOM     10  C   UNL     1       6.126  -1.092  19.153  0.00  0.00    +0.000 A 
ATOM     11  C   UNL     1       5.632  -0.200  18.124  0.00  0.00    +0.000 A 
ATOM     12  C   UNL     1       5.702   1.218  18.697  0.00  0.00    +0.000 A 
ATOM     13  C   UNL     1       6.031   1.756  19.960  0.00  0.00    +0.000 A 
ATOM     14  C   UNL     1       6.754   0.762  20.773  0.00  0.00    +0.000 A 
ATOM     15  C   UNL     1       8.075   1.061  21.220  0.00  0.00    +0.000 C 
ATOM     16  C   UNL     1       8.834  -0.257  21.495  0.00  0.00    +0.000 C 
BRANCH  15  17
ATOM     17  C   UNL     1       8.560   2.131  22.135  0.00  0.00    +0.000 A 
ATOM     18  C   UNL     1      10.032   1.997  22.432  0.00  0.00    +0.000 A 
ATOM     19  C   UNL     1      10.690   1.750  23.743  0.00  0.00    +0.000 A 
ATOM     20  C   UNL     1       9.557   1.711  24.627  0.00  0.00    +0.000 A 
ATOM     21  C   UNL     1       8.167   2.108  24.785  0.00  0.00    +0.000 A 
ATOM     22  C   UNL     1       7.808   2.556  23.346  0.00  0.00    +0.000 A 
ENDBRANCH  15  17
ENDBRANCH   4   7
BRANCH   1  25
ATOM     23  N   UNL     1       6.544  -4.007  24.682  0.00  0.00    +0.000 N 
ATOM     24  H   UNL     1       5.672  -4.064  25.097  0.00  0.00    +0.000 HD
ATOM     25  C   UNL     1       7.477  -3.887  25.628  0.00  0.00    +0.000 C 
ATOM     26  O   UNL     1       7.913  -4.910  26.167  0.00  0.00    +0.000 OA
BRANCH  23  32
ATOM     27  C   UNL     1       5.302  -5.824  23.756  0.00  0.00    +0.000 A 
ATOM     28  C   UNL     1       5.019  -5.928  22.267  0.00  0.00    +0.000 A 
ATOM     29  C   UNL     1       5.984  -5.868  21.152  0.00  0.00    +0.000 A 
ATOM     30  C   UNL     1       7.320  -5.724  21.813  0.00  0.00    +0.000 A 
ATOM     31  C   UNL     1       7.848  -5.391  23.111  0.00  0.00    +0.000 A 
ATOM     32  C   UNL     1       6.649  -5.269  24.039  0.00  0.00    +0.000 A 
BRANCH  27  34
ATOM     33  H   UNL     1       5.544  -7.685  24.038  0.00  0.00    +0.000 HD
ATOM     34  O   UNL     1       4.835  -7.080  24.147  0.00  0.00    +0.000 OA
ENDBRANCH  27  34
ENDBRANCH  23  32
ENDBRANCH   1  25
TORSDOF 5
ENDMDL
MODEL 2
REMARK VINA RESULT:      -8.7      2.594      6.846
REMARK  Name = 
REMARK  5 active torsions:
REMARK  status: ('A' for Active; 'I' for Inactive)
REMARK    1  A    between atoms: O_2  and  C_3
REMARK    2  A    between atoms: C_12  and  N_13
REMARK    3  A    between atoms: C_15  and  C_17
REMARK    4  A    between atoms: N_25  and  N_26
REMARK    5  A    between atoms: C_40  and  C_42
REMARK                            x       y       z     vdW  Elec       q    Type
REMARK                         _______ _______ _______ _____ _____    ______ ____
ROOT
ATOM      1  C   UNL     1       9.854   0.777  22.713  0.00  0.00    +0.000 C 
ATOM      2  C   UNL     1      10.311  -0.610  22.350  0.00  0.00    +0.000 C 
ATOM      3  C   UNL     1       9.966  -1.665  23.353  0.00  0.00    +0.000 C 
ATOM      4  N   UNL     1       9.239  -1.210  24.484  0.00  0.00    +0.000 NA
ATOM      5  C   UNL     1       9.901  -0.098  25.084  0.00  0.00    +0.000 C 
ATOM      6  C   UNL     1      10.073   1.082  24.160  0.00  0.00    +0.000 C 
ENDROOT
BRANCH   4   7
ATOM      7  N   UNL     1       8.730  -2.126  25.307  0.00  0.00    +0.000 NA
ATOM      8  C   UNL     1       7.535  -1.770  26.171  0.00  0.00    +0.000 C 
ATOM      9  C   UNL     1       6.607  -2.496  26.204  0.00  0.00    +0.000 A 
ATOM     10  C   UNL     1       5.986  -2.836  27.564  0.00  0.00    +0.000 A 
ATOM     11  C   UNL     1       4.872  -3.733  27.794  0.00  0.00    +0.000 A 
ATOM     12  C   UNL     1       4.557  -4.401  26.452  0.00  0.00    +0.000 A 
ATOM     13  C   UNL     1       5.039  -4.241  25.135  0.00  0.00    +0.000 A 
ATOM     14  C   UNL     1       6.320  -3.511  25.138  0.00  0.00    +0.000 A 
ATOM     15  C   UNL     1       7.480  -4.146  24.605  0.00  0.00    +0.000 C 
ATOM     16  C   UNL     1       8.744  -3.511  25.229  0.00  0.00    +0.000 C 
BRANCH  15  17
ATOM     17  C   UNL     1       7.772  -4.609  23.220  0.00  0.00    +0.000 A 
ATOM     18  C   UNL     1       7.061  -3.778  22.183  0.00  0.00    +0.000 A 
ATOM     19  C   UNL     1       6.028  -4.208  21.204  0.00  0.00    +0.000 A 
ATOM     20  C   UNL     1       5.927  -5.613  21.496  0.00  0.00    +0.000 A 
ATOM     21  C   UNL     1       6.612  -6.747  22.096  0.00  0.00    +0.000 A 
ATOM     22  C   UNL     1       7.778  -6.047  22.838  0.00  0.00    +0.000 A 
ENDBRANCH  15  17
ENDBRANCH   4   7
BRANCH   1  25
ATOM     23  N   UNL     1       8.224   0.966  20.925  0.00  0.00    +0.000 N 
ATOM     24  H   UNL     1       8.282   1.857  20.553  0.00  0.00    +0.000 HD
ATOM     25  C   UNL     1       8.467   1.018  22.236  0.00  0.00    +0.000 C 
ATOM     26  O   UNL     1       7.539   1.289  23.004  0.00  0.00    +0.000 OA
BRANCH  23  32
ATOM     27  C   UNL     1       6.164   1.753  20.009  0.00  0.00    +0.000 A 
ATOM     28  C   UNL     1       5.720   1.391  18.602  0.00  0.00    +0.000 A 
ATOM     29  C   UNL     1       5.609   0.048  18.000  0.00  0.00    +0.000 A 
ATOM     30  C   UNL     1       5.989  -0.894  19.100  0.00  0.00    +0.000 A 
ATOM     31  C   UNL     1       6.632  -0.840  20.388  0.00  0.00    +0.000 A 
ATOM     32  C   UNL     1       6.864   0.633  20.687  0.00  0.00    +0.000 A 
BRANCH  27  34
ATOM     33  H   UNL     1       4.388   2.360  19.728  0.00  0.00    +0.000 HD
ATOM     34  O   UNL     1       4.991   2.371  20.447  0.00  0.00    +0.000 OA
ENDBRANCH  27  34
ENDBRANCH  23  32
ENDBRANCH   1  25
TORSDOF 5
ENDMDL
MODEL 3
REMARK VINA RESULT:      -8.5      1.593      4.124
REMARK  Name = 
REMARK  5 active torsions:
REMARK  status: ('A' for Active; 'I' for Inactive)
REMARK    1  A    between atoms: O_2  and  C_3
REMARK    2  A    between atoms: C_12  and  N_13
REMARK    3  A    between atoms: C_15  and  C_17
REMARK    4  A    between atoms: N_25  and  N_26
REMARK    5  A    between atoms: C_40  and  C_42
REMARK                            x       y       z     vdW  Elec       q    Type
REMARK                         _______ _______ _______ _____ _____    ______ ____
ROOT
ATOM      1  C   UNL     1       9.049  -4.404  25.182  0.00  0.00    +0.000 C 
ATOM      2  C   UNL     1       8.652  -3.758  26.482  0.00  0.00    +0.000 C 
ATOM      3  C   UNL     1       8.196  -2.338  26.362  0.00  0.00    +0.000 C 
ATOM      4  N   UNL     1       8.178  -1.818  25.041  0.00  0.00    +0.000 NA
ATOM      5  C   UNL     1       9.439  -2.028  24.409  0.00  0.00    +0.000 C 
ATOM      6  C   UNL     1       9.839  -3.480  24.312  0.00  0.00    +0.000 C 
ENDROOT
BRANCH   4   7
ATOM      7  N   UNL     1       7.594  -0.636  24.845  0.00  0.00    +0.000 NA
ATOM      8  C   UNL     1       8.173   0.599  25.507  0.00  0.00    +0.000 C 
ATOM      9  C   UNL     1       8.358   1.570  24.863  0.00  0.00    +0.000 A 
ATOM     10  C   UNL     1       7.918   2.925  25.431  0.00  0.00    +0.000 A 
ATOM     11  C   UNL     1       8.032   4.207  24.766  0.00  0.00    +0.000 A 
ATOM     12  C   UNL     1       8.506   3.923  23.337  0.00  0.00    +0.000 A 
ATOM     13  C   UNL     1       8.912   2.762  22.646  0.00  0.00    +0.000 A 
ATOM     14  C   UNL     1       8.480   1.551  23.368  0.00  0.00    +0.000 A 
ATOM     15  C   UNL     1       7.604   0.633  22.719  0.00  0.00    +0.000 C 
ATOM     16  C   UNL     1       6.829  -0.176  23.784  0.00  0.00    +0.000 C 
BRANCH  15  17
ATOM     17  C   UNL     1       7.813  -0.196  21.499  0.00  0.00    +0.000 A 
ATOM     18  C   UNL     1       7.701   0.618  20.236  0.00  0.00    +0.000 A 
ATOM     19  C   UNL     1       6.713   0.480  19.132  0.00  0.00    +0.000 A 
ATOM     20  C   UNL     1       5.938  -0.644  19.585  0.00  0.00    +0.000 A 
ATOM     21  C   UNL     1       5.940  -1.805  20.460  0.00  0.00    +0.000 A 
ATOM     22  C   UNL     1       7.198  -1.538  21.325  0.00  0.00    +0.000 A 
ENDBRANCH  15  17
ENDBRANCH   4   7
BRANCH   1  25
ATOM     23  N   UNL     1       6.789  -5.286  25.251  0.00  0.00    +0.000 N 
ATOM     24  H   UNL     1       6.830  -6.202  25.559  0.00  0.00    +0.000 HD
ATOM     25  C   UNL     1       7.870  -5.019  24.517  0.00  0.00    +0.000 C 
ATOM     26  O   UNL     1       7.864  -5.314  23.317  0.00  0.00    +0.000 OA
BRANCH  23  32
ATOM     27  C   UNL     1       4.805  -6.501  24.717  0.00  0.00    +0.000 A 
ATOM     28  C   UNL     1       3.459  -6.154  25.330  0.00  0.00    +0.000 A 
ATOM     29  C   UNL     1       2.786  -4.841  25.361  0.00  0.00    +0.000 A 
ATOM     30  C   UNL     1       3.703  -3.925  24.611  0.00  0.00    +0.000 A 
ATOM     31  C   UNL     1       5.065  -3.916  24.141  0.00  0.00    +0.000 A 
ATOM     32  C   UNL     1       5.626  -5.298  24.435  0.00  0.00    +0.000 A 
BRANCH  27  34
ATOM     33  H   UNL     1       3.454  -7.571  23.921  0.00  0.00    +0.000 HD
ATOM     34  O   UNL     1       4.371  -7.435  23.773  0.00  0.00    +0.000 OA
ENDBRANCH  27  34
ENDBRANCH  23  32
ENDBRANCH   1  25
TORSDOF 5
ENDMDL
MODEL 4
REMARK VINA RESULT:      -8.5      1.940      2.744
REMARK  Name = 
REMARK  5 active torsions:
REMARK  status: ('A' for Active; 'I' for Inactive)
REMARK    1  A    between atoms: O_2  and  C_3
REMARK    2  A    between atoms: C_12  and  N_13
REMARK    3  A    between atoms: C_15  and  C_17
REMARK    4  A    between atoms: N_25  and  N_26
REMARK    5  A    between atoms: C_40  and  C_42
REMARK                            x       y       z     vdW  Elec       q    Type
REMARK                         _______ _______ _______ _____ _____    ______ ____
ROOT
ATOM      1  C   UNL     1       9.691  -1.821  24.913  0.00  0.00    +0.000 C 
ATOM      2  C   UNL     1       9.973  -0.352  25.077  0.00  0.00    +0.000 C 
ATOM      3  C   UNL     1       9.813   0.460  23.830  0.00  0.00    +0.000 C 
ATOM      4  N   UNL     1       9.395  -0.268  22.684  0.00  0.00    +0.000 NA
ATOM      5  C   UNL     1      10.240  -1.398  22.481  0.00  0.00    +0.000 C 
ATOM      6  C   UNL     1      10.257  -2.364  23.640  0.00  0.00    +0.000 C 
ENDROOT
BRANCH   4   7
ATOM      7  N   UNL     1       9.042   0.426  21.603  0.00  0.00    +0.000 NA
ATOM      8  C   UNL     1       8.286  -0.270  20.487  0.00  0.00    +0.000 C 
ATOM      9  C   UNL     1       7.312   0.229  20.048  0.00  0.00    +0.000 A 
ATOM     10  C   UNL     1       7.134   0.283  18.526  0.00  0.00    +0.000 A 
ATOM     11  C   UNL     1       6.025   0.887  17.816  0.00  0.00    +0.000 A 
ATOM     12  C   UNL     1       5.169   1.606  18.864  0.00  0.00    +0.000 A 
ATOM     13  C   UNL     1       5.202   1.694  20.272  0.00  0.00    +0.000 A 
ATOM     14  C   UNL     1       6.515   1.263  20.787  0.00  0.00    +0.000 A 
ATOM     15  C   UNL     1       7.302   2.187  21.534  0.00  0.00    +0.000 C 
ATOM     16  C   UNL     1       8.791   1.781  21.446  0.00  0.00    +0.000 C 
BRANCH  15  17
ATOM     17  C   UNL     1       7.029   2.845  22.843  0.00  0.00    +0.000 A 
ATOM     18  C   UNL     1       6.394   1.900  23.829  0.00  0.00    +0.000 A 
ATOM     19  C   UNL     1       5.050   1.991  24.462  0.00  0.00    +0.000 A 
ATOM     20  C   UNL     1       4.558   3.222  23.906  0.00  0.00    +0.000 A 
ATOM     21  C   UNL     1       4.947   4.474  23.278  0.00  0.00    +0.000 A 
ATOM     22  C   UNL     1       6.438   4.205  22.950  0.00  0.00    +0.000 A 
ENDBRANCH  15  17
ENDBRANCH   4   7
BRANCH   1  25
ATOM     23  N   UNL     1       7.593  -2.796  24.178  0.00  0.00    +0.000 N 
ATOM     24  H   UNL     1       7.170  -2.180  23.564  0.00  0.00    +0.000 HD
ATOM     25  C   UNL     1       8.246  -2.107  25.115  0.00  0.00    +0.000 C 
ATOM     26  O   UNL     1       7.624  -1.709  26.105  0.00  0.00    +0.000 OA
BRANCH  23  32
ATOM     27  C   UNL     1       5.209  -2.916  24.202  0.00  0.00    +0.000 A 
ATOM     28  C   UNL     1       4.446  -3.932  23.368  0.00  0.00    +0.000 A 
ATOM     29  C   UNL     1       4.635  -5.395  23.320  0.00  0.00    +0.000 A 
ATOM     30  C   UNL     1       5.721  -5.670  24.314  0.00  0.00    +0.000 A 
ATOM     31  C   UNL     1       6.724  -4.936  25.042  0.00  0.00    +0.000 A 
ATOM     32  C   UNL     1       6.476  -3.466  24.744  0.00  0.00    +0.000 A 
BRANCH  27  34
ATOM     33  H   UNL     1       4.460  -1.670  25.422  0.00  0.00    +0.000 HD
ATOM     34  O   UNL     1       4.143  -2.420  24.955  0.00  0.00    +0.000 OA
ENDBRANCH  27  34
ENDBRANCH  23  32
ENDBRANCH   1  25
TORSDOF 5
ENDMDL
MODEL 5
REMARK VINA RESULT:      -8.3      1.896      3.897
REMARK  Name = 
REMARK  5 active torsions:
REMARK  status: ('A' for Active; 'I' for Inactive)
REMARK    1  A    between atoms: O_2  and  C_3
REMARK    2  A    between atoms: C_12  and  N_13
REMARK    3  A    between atoms: C_15  and  C_17
REMARK    4  A    between atoms: N_25  and  N_26
REMARK    5  A    between atoms: C_40  and  C_42
REMARK                            x       y       z     vdW  Elec       q    Type
REMARK                         _______ _______ _______ _____ _____    ______ ____
ROOT
ATOM      1  C   UNL     1       7.905  -4.210  26.065  0.00  0.00    +0.000 C 
ATOM      2  C   UNL     1       9.200  -3.514  25.745  0.00  0.00    +0.000 C 
ATOM      3  C   UNL     1       9.315  -3.019  24.338  0.00  0.00    +0.000 C 
ATOM      4  N   UNL     1       8.178  -3.254  23.520  0.00  0.00    +0.000 NA
ATOM      5  C   UNL     1       7.807  -4.630  23.573  0.00  0.00    +0.000 C 
ATOM      6  C   UNL     1       7.466  -5.116  24.961  0.00  0.00    +0.000 C 
ENDROOT
BRANCH   4   7
ATOM      7  N   UNL     1       8.139  -2.663  22.326  0.00  0.00    +0.000 NA
ATOM      8  C   UNL     1       6.795  -2.334  21.703  0.00  0.00    +0.000 C 
ATOM      9  C   UNL     1       6.607  -1.255  21.268  0.00  0.00    +0.000 A 
ATOM     10  C   UNL     1       5.941  -1.120  19.893  0.00  0.00    +0.000 A 
ATOM     11  C   UNL     1       5.668   0.118  19.193  0.00  0.00    +0.000 A 
ATOM     12  C   UNL     1       6.327   1.238  20.004  0.00  0.00    +0.000 A 
ATOM     13  C   UNL     1       6.999   1.293  21.244  0.00  0.00    +0.000 A 
ATOM     14  C   UNL     1       7.415  -0.056  21.667  0.00  0.00    +0.000 A 
ATOM     15  C   UNL     1       8.802  -0.323  21.863  0.00  0.00    +0.000 C 
ATOM     16  C   UNL     1       9.061  -1.838  21.700  0.00  0.00    +0.000 C 
BRANCH  15  17
ATOM     17  C   UNL     1       9.764   0.258  22.841  0.00  0.00    +0.000 A 
ATOM     18  C   UNL     1       9.266   0.147  24.258  0.00  0.00    +0.000 A 
ATOM     19  C   UNL     1       8.941   1.243  25.211  0.00  0.00    +0.000 A 
ATOM     20  C   UNL     1       9.262   2.405  24.427  0.00  0.00    +0.000 A 
ATOM     21  C   UNL     1      10.022   2.887  23.286  0.00  0.00    +0.000 A 
ATOM     22  C   UNL     1      10.452   1.557  22.616  0.00  0.00    +0.000 A 
ENDBRANCH  15  17
ENDBRANCH   4   7
BRANCH   1  25
ATOM     23  N   UNL     1       7.142  -1.930  26.399  0.00  0.00    +0.000 N 
ATOM     24  H   UNL     1       7.504  -1.609  27.237  0.00  0.00    +0.000 HD
ATOM     25  C   UNL     1       6.875  -3.233  26.505  0.00  0.00    +0.000 C 
ATOM     26  O   UNL     1       5.793  -3.582  26.989  0.00  0.00    +0.000 OA
BRANCH  23  32
ATOM     27  C   UNL     1       5.737  -0.340  27.493  0.00  0.00    +0.000 A 
ATOM     28  C   UNL     1       5.805   1.145  27.177  0.00  0.00    +0.000 A 
ATOM     29  C   UNL     1       5.714   1.798  25.857  0.00  0.00    +0.000 A 
ATOM     30  C   UNL     1       5.493   0.675  24.891  0.00  0.00    +0.000 A 
ATOM     31  C   UNL     1       5.602  -0.761  24.868  0.00  0.00    +0.000 A 
ATOM     32  C   UNL     1       5.938  -1.185  26.290  0.00  0.00    +0.000 A 
BRANCH  27  34
ATOM     33  H   UNL     1       4.420   0.567  28.515  0.00  0.00    +0.000 HD
ATOM     34  O   UNL     1       4.602  -0.330  28.306  0.00  0.00    +0.000 OA
ENDBRANCH  27  34
ENDBRANCH  23  32
ENDBRANCH   1  25
TORSDOF 5
ENDMDL
MODEL 6
REMARK VINA RESULT:      -8.1      2.138      4.795
REMARK  Name = 
REMARK  5 active torsions:
REMARK  status: ('A' for Active; 'I' for Inactive)
REMARK    1  A    between atoms: O_2  and  C_3
REMARK    2  A    between atoms: C_12  and  N_13
REMARK    3  A    between atoms: C_15  and  C_17
REMARK    4  A    between atoms: N_25  and  N_26
REMARK    5  A    between atoms: C_40  and  C_42
REMARK                            x       y       z     vdW  Elec       q    Type
REMARK                         _______ _______ _______ _____ _____    ______ ____
ROOT
ATOM      1  C   UNL     1       5.124  -5.704  22.617  0.00  0.00    +0.000 C 
ATOM      2  C   UNL     1       6.332  -6.086  21.805  0.00  0.00    +0.000 C 
ATOM      3  C   UNL     1       7.427  -5.067  21.794  0.00  0.00    +0.000 C 
ATOM      4  N   UNL     1       7.179  -3.904  22.569  0.00  0.00    +0.000 NA
ATOM      5  C   UNL     1       5.918  -3.337  22.221  0.00  0.00    +0.000 C 
ATOM      6  C   UNL     1       4.750  -4.270  22.429  0.00  0.00    +0.000 C 
ENDROOT
BRANCH   4   7
ATOM      7  N   UNL     1       8.190  -3.057  22.763  0.00  0.00    +0.000 NA
ATOM      8  C   UNL     1       8.415  -1.929  21.774  0.00  0.00    +0.000 C 
ATOM      9  C   UNL     1       8.571  -0.831  22.173  0.00  0.00    +0.000 A 
ATOM     10  C   UNL     1       9.705   0.014  21.580  0.00  0.00    +0.000 A 
ATOM     11  C   UNL     1      10.063   1.361  21.974  0.00  0.00    +0.000 A 
ATOM     12  C   UNL     1       9.214   1.702  23.203  0.00  0.00    +0.000 A 
ATOM     13  C   UNL     1       8.173   1.047  23.894  0.00  0.00    +0.000 A 
ATOM     14  C   UNL     1       8.133  -0.383  23.536  0.00  0.00    +0.000 A 
ATOM     15  C   UNL     1       8.313  -1.358  24.560  0.00  0.00    +0.000 C 
ATOM     16  C   UNL     1       8.829  -2.673  23.931  0.00  0.00    +0.000 C 
BRANCH  15  17
ATOM     17  C   UNL     1       7.481  -1.658  25.759  0.00  0.00    +0.000 A 
ATOM     18  C   UNL     1       6.015  -1.752  25.422  0.00  0.00    +0.000 A 
ATOM     19  C   UNL     1       4.899  -0.898  25.907  0.00  0.00    +0.000 A 
ATOM     20  C   UNL     1       5.592  -0.001  26.793  0.00  0.00    +0.000 A 
ATOM     21  C   UNL     1       6.797   0.179  27.586  0.00  0.00    +0.000 A 
ATOM     22  C   UNL     1       7.685  -0.981  27.068  0.00  0.00    +0.000 A 
ENDBRANCH  15  17
ENDBRANCH   4   7
BRANCH   1  25
ATOM     23  N   UNL     1       5.737  -5.219  24.914  0.00  0.00    +0.000 N 
ATOM     24  H   UNL     1       6.697  -5.301  24.997  0.00  0.00    +0.000 HD
ATOM     25  C   UNL     1       5.290  -6.117  24.035  0.00  0.00    +0.000 C 
ATOM     26  O   UNL     1       5.055  -7.266  24.424  0.00  0.00    +0.000 OA
BRANCH  23  32
ATOM     27  C   UNL     1       6.355  -5.246  27.220  0.00  0.00    +0.000 A 
ATOM     28  C   UNL     1       5.955  -4.133  28.174  0.00  0.00    +0.000 A 
ATOM     29  C   UNL     1       4.605  -3.590  28.422  0.00  0.00    +0.000 A 
ATOM     30  C   UNL     1       3.700  -4.410  27.557  0.00  0.00    +0.000 A 
ATOM     31  C   UNL     1       3.808  -5.325  26.449  0.00  0.00    +0.000 A 
ATOM     32  C   UNL     1       5.296  -5.546  26.225  0.00  0.00    +0.000 A 
BRANCH  27  34
ATOM     33  H   UNL     1       7.809  -6.013  28.169  0.00  0.00    +0.000 HD
ATOM     34  O   UNL     1       6.879  -6.143  28.153  0.00  0.00    +0.000 OA
ENDBRANCH  27  34
ENDBRANCH  23  32
ENDBRANCH   1  25
TORSDOF 5
ENDMDL
MODEL 7
REMARK VINA RESULT:      -8.0      2.732      6.772
REMARK  Name = 
REMARK  5 active torsions:
REMARK  status: ('A' for Active; 'I' for Inactive)
REMARK    1  A    between atoms: O_2  and  C_3
REMARK    2  A    between atoms: C_12  and  N_13
REMARK    3  A    between atoms: C_15  and  C_17
REMARK    4  A    between atoms: N_25  and  N_26
REMARK    5  A    between atoms: C_40  and  C_42
REMARK                            x       y       z     vdW  Elec       q    Type
REMARK                         _______ _______ _______ _____ _____    ______ ____
ROOT
ATOM      1  C   UNL     1      10.094   0.460  22.459  0.00  0.00    +0.000 C 
ATOM      2  C   UNL     1      10.218  -1.026  22.658  0.00  0.00    +0.000 C 
ATOM      3  C   UNL     1       9.703  -1.528  23.970  0.00  0.00    +0.000 C 
ATOM      4  N   UNL     1       9.150  -0.536  24.822  0.00  0.00    +0.000 NA
ATOM      5  C   UNL     1      10.068   0.543  24.986  0.00  0.00    +0.000 C 
ATOM      6  C   UNL     1      10.446   1.225  23.693  0.00  0.00    +0.000 C 
ENDROOT
BRANCH   4   7
ATOM      7  N   UNL     1       8.496  -0.944  25.909  0.00  0.00    +0.000 NA
ATOM      8  C   UNL     1       7.460  -0.033  26.540  0.00  0.00    +0.000 C 
ATOM      9  C   UNL     1       6.396  -0.464  26.809  0.00  0.00    +0.000 A 
ATOM     10  C   UNL     1       5.791  -0.129  28.177  0.00  0.00    +0.000 A 
ATOM     11  C   UNL     1       4.519  -0.599  28.688  0.00  0.00    +0.000 A 
ATOM     12  C   UNL     1       3.990  -1.624  27.679  0.00  0.00    +0.000 A 
ATOM     13  C   UNL     1       4.423  -2.075  26.414  0.00  0.00    +0.000 A 
ATOM     14  C   UNL     1       5.832  -1.706  26.186  0.00  0.00    +0.000 A 
ATOM     15  C   UNL     1       6.790  -2.739  25.965  0.00  0.00    +0.000 C 
ATOM     16  C   UNL     1       8.196  -2.224  26.350  0.00  0.00    +0.000 C 
BRANCH  15  17
ATOM     17  C   UNL     1       6.895  -3.733  24.861  0.00  0.00    +0.000 A 
ATOM     18  C   UNL     1       6.476  -3.153  23.535  0.00  0.00    +0.000 A 
ATOM     19  C   UNL     1       5.343  -3.565  22.663  0.00  0.00    +0.000 A 
ATOM     20  C   UNL     1       4.798  -4.668  23.408  0.00  0.00    +0.000 A 
ATOM     21  C   UNL     1       5.087  -5.663  24.427  0.00  0.00    +0.000 A 
ATOM     22  C   UNL     1       6.429  -5.139  24.999  0.00  0.00    +0.000 A 
ENDBRANCH  15  17
ENDBRANCH   4   7
BRANCH   1  25
ATOM     23  N   UNL     1       8.442   0.297  20.688  0.00  0.00    +0.000 N 
ATOM     24  H   UNL     1       8.678   0.929  19.994  0.00  0.00    +0.000 HD
ATOM     25  C   UNL     1       8.771   0.805  21.877  0.00  0.00    +0.000 C 
ATOM     26  O   UNL     1       7.976   1.565  22.441  0.00  0.00    +0.000 OA
BRANCH  23  32
ATOM     27  C   UNL     1       6.492   1.483  19.988  0.00  0.00    +0.000 A 
ATOM     28  C   UNL     1       5.882   1.286  18.611  0.00  0.00    +0.000 A 
ATOM     29  C   UNL     1       5.486   0.019  17.964  0.00  0.00    +0.000 A 
ATOM     30  C   UNL     1       5.776  -1.036  18.986  0.00  0.00    +0.000 A 
ATOM     31  C   UNL     1       6.516  -1.169  20.215  0.00  0.00    +0.000 A 
ATOM     32  C   UNL     1       7.030   0.221  20.555  0.00  0.00    +0.000 A 
BRANCH  27  34
ATOM     33  H   UNL     1       4.932   2.556  19.851  0.00  0.00    +0.000 HD
ATOM     34  O   UNL     1       5.486   2.270  20.553  0.00  0.00    +0.000 OA
ENDBRANCH  27  34
ENDBRANCH  23  32
ENDBRANCH   1  25
TORSDOF 5
ENDMDL
MODEL 8
REMARK VINA RESULT:      -7.9      1.751      2.614
REMARK  Name = 
REMARK  5 active torsions:
REMARK  status: ('A' for Active; 'I' for Inactive)
REMARK    1  A    between atoms: O_2  and  C_3
REMARK    2  A    between atoms: C_12  and  N_13
REMARK    3  A    between atoms: C_15  and  C_17
REMARK    4  A    between atoms: N_25  and  N_26
REMARK    5  A    between atoms: C_40  and  C_42
REMARK                            x       y       z     vdW  Elec       q    Type
REMARK                         _______ _______ _______ _____ _____    ______ ____
ROOT
ATOM      1  C   UNL     1       7.657  -4.470  25.789  0.00  0.00    +0.000 C 
ATOM      2  C   UNL     1       7.208  -3.046  25.973  0.00  0.00    +0.000 C 
ATOM      3  C   UNL     1       7.514  -2.139  24.823  0.00  0.00    +0.000 C 
ATOM      4  N   UNL     1       8.159  -2.758  23.720  0.00  0.00    +0.000 NA
ATOM      5  C   UNL     1       9.312  -3.473  24.158  0.00  0.00    +0.000 C 
ATOM      6  C   UNL     1       9.013  -4.557  25.165  0.00  0.00    +0.000 C 
ENDROOT
BRANCH   4   7
ATOM      7  N   UNL     1       8.275  -2.055  22.593  0.00  0.00    +0.000 NA
ATOM      8  C   UNL     1       7.053  -1.841  21.720  0.00  0.00    +0.000 C 
ATOM      9  C   UNL     1       6.798  -0.756  21.337  0.00  0.00    +0.000 A 
ATOM     10  C   UNL     1       6.413  -0.566  19.865  0.00  0.00    +0.000 A 
ATOM     11  C   UNL     1       6.106   0.693  19.217  0.00  0.00    +0.000 A 
ATOM     12  C   UNL     1       6.411   1.798  20.233  0.00  0.00    +0.000 A 
ATOM     13  C   UNL     1       6.800   1.810  21.589  0.00  0.00    +0.000 A 
ATOM     14  C   UNL     1       7.319   0.490  21.991  0.00  0.00    +0.000 A 
ATOM     15  C   UNL     1       8.661   0.387  22.461  0.00  0.00    +0.000 C 
ATOM     16  C   UNL     1       9.171  -1.056  22.246  0.00  0.00    +0.000 C 
BRANCH  15  17
ATOM     17  C   UNL     1       9.306   0.983  23.665  0.00  0.00    +0.000 A 
ATOM     18  C   UNL     1       8.313   1.244  24.768  0.00  0.00    +0.000 A 
ATOM     19  C   UNL     1       7.926   2.547  25.373  0.00  0.00    +0.000 A 
ATOM     20  C   UNL     1       8.772   3.458  24.649  0.00  0.00    +0.000 A 
ATOM     21  C   UNL     1       9.987   3.567  23.858  0.00  0.00    +0.000 A 
ATOM     22  C   UNL     1      10.310   2.077  23.581  0.00  0.00    +0.000 A 
ENDBRANCH  15  17
ENDBRANCH   4   7
BRANCH   1  25
ATOM     23  N   UNL     1       5.480  -5.541  25.754  0.00  0.00    +0.000 N 
ATOM     24  H   UNL     1       5.558  -6.403  26.185  0.00  0.00    +0.000 HD
ATOM     25  C   UNL     1       6.610  -5.269  25.100  0.00  0.00    +0.000 C 
ATOM     26  O   UNL     1       6.759  -5.713  23.957  0.00  0.00    +0.000 OA
BRANCH  23  32
ATOM     27  C   UNL     1       3.712  -7.028  25.153  0.00  0.00    +0.000 A 
ATOM     28  C   UNL     1       2.278  -6.797  25.600  0.00  0.00    +0.000 A 
ATOM     29  C   UNL     1       1.462  -5.577  25.442  0.00  0.00    +0.000 A 
ATOM     30  C   UNL     1       2.345  -4.623  24.698  0.00  0.00    +0.000 A 
ATOM     31  C   UNL     1       3.738  -4.488  24.360  0.00  0.00    +0.000 A 
ATOM     32  C   UNL     1       4.418  -5.762  24.837  0.00  0.00    +0.000 A 
BRANCH  27  34
ATOM     33  H   UNL     1       4.158  -8.042  23.611  0.00  0.00    +0.000 HD
ATOM     34  O   UNL     1       3.487  -8.084  24.266  0.00  0.00    +0.000 OA
ENDBRANCH  27  34
ENDBRANCH  23  32
ENDBRANCH   1  25
TORSDOF 5
ENDMDL
MODEL 9
REMARK VINA RESULT:      -7.8      2.809      4.131
REMARK  Name = 
REMARK  5 active torsions:
REMARK  status: ('A' for Active; 'I' for Inactive)
REMARK    1  A    between atoms: O_2  and  C_3
REMARK    2  A    between atoms: C_12  and  N_13
REMARK    3  A    between atoms: C_15  and  C_17
REMARK    4  A    between atoms: N_25  and  N_26
REMARK    5  A    between atoms: C_40  and  C_42
REMARK                            x       y       z     vdW  Elec       q    Type
REMARK                         _______ _______ _______ _____ _____    ______ ____
ROOT
ATOM      1  C   UNL     1       9.701  -1.624  25.078  0.00  0.00    +0.000 C 
ATOM      2  C   UNL     1      10.225  -0.214  25.058  0.00  0.00    +0.000 C 
ATOM      3  C   UNL     1      10.077   0.490  23.746  0.00  0.00    +0.000 C 
ATOM      4  N   UNL     1       9.443  -0.263  22.723  0.00  0.00    +0.000 NA
ATOM      5  C   UNL     1      10.076  -1.533  22.579  0.00  0.00    +0.000 C 
ATOM      6  C   UNL     1      10.051  -2.373  23.833  0.00  0.00    +0.000 C 
ENDROOT
BRANCH   4   7
ATOM      7  N   UNL     1       9.102   0.372  21.602  0.00  0.00    +0.000 NA
ATOM      8  C   UNL     1       8.267  -0.350  20.562  0.00  0.00    +0.000 C 
ATOM      9  C   UNL     1       7.314   0.181  20.114  0.00  0.00    +0.000 A 
ATOM     10  C   UNL     1       7.092   0.137  18.597  0.00  0.00    +0.000 A 
ATOM     11  C   UNL     1       6.002   0.761  17.875  0.00  0.00    +0.000 A 
ATOM     12  C   UNL     1       5.229   1.610  18.889  0.00  0.00    +0.000 A 
ATOM     13  C   UNL     1       5.312   1.797  20.285  0.00  0.00    +0.000 A 
ATOM     14  C   UNL     1       6.610   1.317  20.795  0.00  0.00    +0.000 A 
ATOM     15  C   UNL     1       7.479   2.237  21.451  0.00  0.00    +0.000 C 
ATOM     16  C   UNL     1       8.935   1.726  21.352  0.00  0.00    +0.000 C 
BRANCH  15  17
ATOM     17  C   UNL     1       7.291   3.004  22.713  0.00  0.00    +0.000 A 
ATOM     18  C   UNL     1       6.500   4.268  22.495  0.00  0.00    +0.000 A 
ATOM     19  C   UNL     1       6.934   5.676  22.698  0.00  0.00    +0.000 A 
ATOM     20  C   UNL     1       8.276   5.493  23.182  0.00  0.00    +0.000 A 
ATOM     21  C   UNL     1       9.187   4.549  23.807  0.00  0.00    +0.000 A 
ATOM     22  C   UNL     1       8.390   3.225  23.691  0.00  0.00    +0.000 A 
ENDBRANCH  15  17
ENDBRANCH   4   7
BRANCH   1  25
ATOM     23  N   UNL     1       7.753  -0.636  26.135  0.00  0.00    +0.000 N 
ATOM     24  H   UNL     1       7.766  -0.868  27.074  0.00  0.00    +0.000 HD
ATOM     25  C   UNL     1       8.256  -1.646  25.424  0.00  0.00    +0.000 C 
ATOM     26  O   UNL     1       7.510  -2.575  25.099  0.00  0.00    +0.000 OA
BRANCH  23  32
ATOM     27  C   UNL     1       5.610  -0.391  27.158  0.00  0.00    +0.000 A 
ATOM     28  C   UNL     1       4.953   0.968  27.333  0.00  0.00    +0.000 A 
ATOM     29  C   UNL     1       4.710   1.999  26.306  0.00  0.00    +0.000 A 
ATOM     30  C   UNL     1       5.215   1.395  25.032  0.00  0.00    +0.000 A 
ATOM     31  C   UNL     1       6.040   0.288  24.620  0.00  0.00    +0.000 A 
ATOM     32  C   UNL     1       6.363  -0.495  25.883  0.00  0.00    +0.000 A 
BRANCH  27  34
ATOM     33  H   UNL     1       4.364  -1.785  26.833  0.00  0.00    +0.000 HD
ATOM     34  O   UNL     1       4.535  -1.195  27.542  0.00  0.00    +0.000 OA
ENDBRANCH  27  34
ENDBRANCH  23  32
ENDBRANCH   1  25
TORSDOF 5
ENDMDL
