MODEL 1
REMARK VINA RESULT:      -8.7      0.000      0.000
REMARK  Name = 
REMARK  9 active torsions:
REMARK  status: ('A' for Active; 'I' for Inactive)
REMARK    1  A    between atoms: C_7  and  C_8
REMARK    2  A    between atoms: C_24  and  C_26
REMARK    3  A    between atoms: C_26  and  C_29
REMARK    4  A    between atoms: C_29  and  C_32
REMARK    5  A    between atoms: C_41  and  C_43
REMARK    6  A    between atoms: N_45  and  C_46
REMARK    7  A    between atoms: N_45  and  C_50
REMARK    8  A    between atoms: C_50  and  C_52
REMARK    9  A    between atoms: C_50  and  C_56
REMARK                            x       y       z     vdW  Elec       q    Type
REMARK                         _______ _______ _______ _____ _____    ______ ____
ROOT
ATOM      1  C   UNL     1      10.009   0.974  22.883  0.00  0.00    +0.000 C 
ATOM      2  C   UNL     1       9.194   1.172  21.721  0.00  0.00    +0.000 A 
ATOM      3  C   UNL     1       7.856   1.631  22.236  0.00  0.00    +0.000 A 
ATOM      4  C   UNL     1       6.644   1.533  21.467  0.00  0.00    +0.000 A 
ATOM      5  C   UNL     1       6.961   0.552  20.323  0.00  0.00    +0.000 A 
ATOM      6  C   UNL     1       8.097  -0.125  19.829  0.00  0.00    +0.000 A 
ATOM      7  C   UNL     1       8.982  -0.259  21.080  0.00  0.00    +0.000 A 
ATOM      8  C   UNL     1       8.899  -1.642  21.730  0.00  0.00    +0.000 C 
ATOM      9  N   UNL     1       9.485  -1.451  22.897  0.00  0.00    +0.000 N 
ATOM     10  C   UNL     1       9.318  -2.275  24.057  0.00  0.00    +0.000 C 
ATOM     11  O   UNL     1      10.313  -3.087  23.897  0.00  0.00    +0.000 OA
ATOM     12  C   UNL     1      10.316  -0.422  23.231  0.00  0.00    +0.000 C 
ENDROOT
BRANCH   1  16
ATOM     13  C   UNL     1       8.784   4.576  24.306  0.00  0.00    +0.000 A 
ATOM     14  C   UNL     1      10.092   4.424  23.601  0.00  0.00    +0.000 A 
ATOM     15  C   UNL     1      10.902   3.202  23.438  0.00  0.00    +0.000 A 
ATOM     16  C   UNL     1      10.075   1.996  23.844  0.00  0.00    +0.000 A 
ATOM     17  C   UNL     1       9.082   2.011  24.993  0.00  0.00    +0.000 A 
ATOM     18  C   UNL     1       8.420   3.395  25.135  0.00  0.00    +0.000 A 
ENDBRANCH   1  16
BRANCH  10  19
ATOM     19  C   UNL     1       8.057  -2.864  24.201  0.00  0.00    +0.000 C 
BRANCH  19  20
ATOM     20  C   UNL     1       6.998  -2.705  25.171  0.00  0.00    +0.000 C 
BRANCH  20  21
ATOM     21  C   UNL     1       6.894  -3.477  26.388  0.00  0.00    +0.000 C 
ATOM     22  O   UNL     1       8.050  -3.707  26.977  0.00  0.00    +0.000 OA
ATOM     23  N   UNL     1       5.842  -3.574  27.216  0.00  0.00    +0.000 N 
ATOM     24  C   UNL     1       4.567  -2.921  27.097  0.00  0.00    +0.000 C 
ATOM     25  C   UNL     1       3.585  -3.916  26.473  0.00  0.00    +0.000 C 
ATOM     26  C   UNL     1       3.925  -5.342  26.863  0.00  0.00    +0.000 C 
ATOM     27  C   UNL     1       4.526  -5.369  28.246  0.00  0.00    +0.000 C 
ATOM     28  C   UNL     1       5.851  -4.630  28.264  0.00  0.00    +0.000 C 
BRANCH  26  29
ATOM     29  C   UNL     1       4.857  -5.965  25.884  0.00  0.00    +0.000 C 
ATOM     30  O   UNL     1       5.916  -6.479  26.192  0.00  0.00    +0.000 OA
ATOM     31  N   UNL     1       4.496  -5.960  24.548  0.00  0.00    +0.000 N 
ATOM     32  C   UNL     1       3.649  -7.028  24.084  0.00  0.00    +0.000 C 
BRANCH  31  33
ATOM     33  C   UNL     1       5.310  -5.185  23.645  0.00  0.00    +0.000 C 
ATOM     34  C   UNL     1       5.983  -6.105  22.619  0.00  0.00    +0.000 C 
ATOM     35  C   UNL     1       4.568  -4.092  22.934  0.00  0.00    +0.000 C 
ENDBRANCH  31  33
ENDBRANCH  26  29
ENDBRANCH  20  21
ENDBRANCH  19  20
ENDBRANCH  10  19
TORSDOF 6
ENDMDL
MODEL 2
REMARK VINA RESULT:      -8.5      1.490      2.765
REMARK  Name = 
REMARK  9 active torsions:
REMARK  status: ('A' for Active; 'I' for Inactive)
REMARK    1  A    between atoms: C_7  and  C_8
REMARK    2  A    between atoms: C_24  and  C_26
REMARK    3  A    between atoms: C_26  and  C_29
REMARK    4  A    between atoms: C_29  and  C_32
REMARK    5  A    between atoms: C_41  and  C_43
REMARK    6  A    between atoms: N_45  and  C_46
REMARK    7  A    between atoms: N_45  and  C_50
REMARK    8  A    between atoms: C_50  and  C_52
REMARK    9  A    between atoms: C_50  and  C_56
REMARK                            x       y       z     vdW  Elec       q    Type
REMARK                         _______ _______ _______ _____ _____    ______ ____
ROOT
ATOM      1  C   UNL     1       9.969   0.992  22.847  0.00  0.00    +0.000 C 
ATOM      2  C   UNL     1       9.153   1.199  21.688  0.00  0.00    +0.000 A 
ATOM      3  C   UNL     1       7.801   1.609  22.210  0.00  0.00    +0.000 A 
ATOM      4  C   UNL     1       6.594   1.499  21.435  0.00  0.00    +0.000 A 
ATOM      5  C   UNL     1       6.940   0.558  20.267  0.00  0.00    +0.000 A 
ATOM      6  C   UNL     1       8.095  -0.076  19.759  0.00  0.00    +0.000 A 
ATOM      7  C   UNL     1       8.980  -0.219  21.009  0.00  0.00    +0.000 A 
ATOM      8  C   UNL     1       8.932  -1.621  21.622  0.00  0.00    +0.000 C 
ATOM      9  N   UNL     1       9.509  -1.446  22.795  0.00  0.00    +0.000 N 
ATOM     10  C   UNL     1       9.361  -2.303  23.932  0.00  0.00    +0.000 C 
ATOM     11  O   UNL     1      10.378  -3.085  23.755  0.00  0.00    +0.000 OA
ATOM     12  C   UNL     1      10.312  -0.404  23.159  0.00  0.00    +0.000 C 
ENDROOT
BRANCH   1  16
ATOM     13  C   UNL     1       8.589   4.481  24.403  0.00  0.00    +0.000 A 
ATOM     14  C   UNL     1       9.884   4.420  23.661  0.00  0.00    +0.000 A 
ATOM     15  C   UNL     1      10.754   3.250  23.443  0.00  0.00    +0.000 A 
ATOM     16  C   UNL     1      10.006   1.990  23.835  0.00  0.00    +0.000 A 
ATOM     17  C   UNL     1       9.045   1.919  25.009  0.00  0.00    +0.000 A 
ATOM     18  C   UNL     1       8.312   3.261  25.207  0.00  0.00    +0.000 A 
ENDBRANCH   1  16
BRANCH  10  19
ATOM     19  C   UNL     1       8.116  -2.929  24.057  0.00  0.00    +0.000 C 
BRANCH  19  20
ATOM     20  C   UNL     1       7.596  -3.918  24.973  0.00  0.00    +0.000 C 
BRANCH  20  21
ATOM     21  C   UNL     1       6.295  -4.534  24.844  0.00  0.00    +0.000 C 
ATOM     22  O   UNL     1       6.064  -5.055  23.655  0.00  0.00    +0.000 OA
ATOM     23  N   UNL     1       5.529  -5.055  25.814  0.00  0.00    +0.000 N 
ATOM     24  C   UNL     1       5.825  -5.138  27.219  0.00  0.00    +0.000 C 
ATOM     25  C   UNL     1       5.119  -3.974  27.918  0.00  0.00    +0.000 C 
ATOM     26  C   UNL     1       3.830  -3.605  27.206  0.00  0.00    +0.000 C 
ATOM     27  C   UNL     1       3.213  -4.835  26.590  0.00  0.00    +0.000 C 
ATOM     28  C   UNL     1       4.114  -5.396  25.505  0.00  0.00    +0.000 C 
BRANCH  26  29
ATOM     29  C   UNL     1       4.064  -2.567  26.165  0.00  0.00    +0.000 C 
ATOM     30  O   UNL     1       3.749  -2.700  24.997  0.00  0.00    +0.000 OA
ATOM     31  N   UNL     1       4.672  -1.385  26.549  0.00  0.00    +0.000 N 
ATOM     32  C   UNL     1       3.828  -0.345  27.079  0.00  0.00    +0.000 C 
BRANCH  31  33
ATOM     33  C   UNL     1       5.977  -1.105  26.006  0.00  0.00    +0.000 C 
ATOM     34  C   UNL     1       5.877  -0.028  24.920  0.00  0.00    +0.000 C 
ATOM     35  C   UNL     1       6.994  -0.696  27.031  0.00  0.00    +0.000 C 
ENDBRANCH  31  33
ENDBRANCH  26  29
ENDBRANCH  20  21
ENDBRANCH  19  20
ENDBRANCH  10  19
TORSDOF 6
ENDMDL
MODEL 3
REMARK VINA RESULT:      -8.2      2.436      8.180
REMARK  Name = 
REMARK  9 active torsions:
REMARK  status: ('A' for Active; 'I' for Inactive)
REMARK    1  A    between atoms: C_7  and  C_8
REMARK    2  A    between atoms: C_24  and  C_26
REMARK    3  A    between atoms: C_26  and  C_29
REMARK    4  A    between atoms: C_29  and  C_32
REMARK    5  A    between atoms: C_41  and  C_43
REMARK    6  A    between atoms: N_45  and  C_46
REMARK    7  A    between atoms: N_45  and  C_50
REMARK    8  A    between atoms: C_50  and  C_52
REMARK    9  A    between atoms: C_50  and  C_56
REMARK                            x       y       z     vdW  Elec       q    Type
REMARK                         _______ _______ _______ _____ _____    ______ ____
ROOT
ATOM      1  C   UNL     1       5.431  -5.081  24.781  0.00  0.00    +0.000 C 
ATOM      2  C   UNL     1       6.727  -5.346  25.332  0.00  0.00    +0.000 A 
ATOM      3  C   UNL     1       6.994  -4.223  26.300  0.00  0.00    +0.000 A 
ATOM      4  C   UNL     1       8.316  -3.865  26.740  0.00  0.00    +0.000 A 
ATOM      5  C   UNL     1       9.278  -4.539  25.745  0.00  0.00    +0.000 A 
ATOM      6  C   UNL     1       9.178  -5.442  24.663  0.00  0.00    +0.000 A 
ATOM      7  C   UNL     1       7.755  -5.188  24.139  0.00  0.00    +0.000 A 
ATOM      8  C   UNL     1       7.721  -4.283  22.905  0.00  0.00    +0.000 C 
ATOM      9  N   UNL     1       6.442  -3.977  22.803  0.00  0.00    +0.000 N 
ATOM     10  C   UNL     1       5.910  -2.848  22.100  0.00  0.00    +0.000 C 
ATOM     11  O   UNL     1       5.682  -3.393  20.947  0.00  0.00    +0.000 OA
ATOM     12  C   UNL     1       5.398  -4.641  23.379  0.00  0.00    +0.000 C 
ENDROOT
BRANCH   1  16
ATOM     13  C   UNL     1       1.465  -5.129  25.657  0.00  0.00    +0.000 A 
ATOM     14  C   UNL     1       2.154  -3.869  25.244  0.00  0.00    +0.000 A 
ATOM     15  C   UNL     1       3.588  -3.543  25.339  0.00  0.00    +0.000 A 
ATOM     16  C   UNL     1       4.368  -4.805  25.657  0.00  0.00    +0.000 A 
ATOM     17  C   UNL     1       3.852  -5.897  26.578  0.00  0.00    +0.000 A 
ATOM     18  C   UNL     1       2.320  -6.026  26.480  0.00  0.00    +0.000 A 
ENDBRANCH   1  16
BRANCH  10  19
ATOM     19  C   UNL     1       6.718  -1.706  22.093  0.00  0.00    +0.000 C 
BRANCH  19  20
ATOM     20  C   UNL     1       6.903  -0.623  23.031  0.00  0.00    +0.000 C 
BRANCH  20  21
ATOM     21  C   UNL     1       8.078  -0.459  23.856  0.00  0.00    +0.000 C 
ATOM     22  O   UNL     1       8.036  -1.132  24.988  0.00  0.00    +0.000 OA
ATOM     23  N   UNL     1       9.323  -0.144  23.466  0.00  0.00    +0.000 N 
ATOM     24  C   UNL     1       9.791   0.093  22.127  0.00  0.00    +0.000 C 
ATOM     25  C   UNL     1       9.832   1.607  21.903  0.00  0.00    +0.000 C 
ATOM     26  C   UNL     1      10.133   2.345  23.194  0.00  0.00    +0.000 C 
ATOM     27  C   UNL     1      11.032   1.508  24.068  0.00  0.00    +0.000 C 
ATOM     28  C   UNL     1      10.323   0.238  24.499  0.00  0.00    +0.000 C 
BRANCH  26  29
ATOM     29  C   UNL     1       8.883   2.695  23.924  0.00  0.00    +0.000 C 
ATOM     30  O   UNL     1       8.685   2.420  25.092  0.00  0.00    +0.000 OA
ATOM     31  N   UNL     1       7.893   3.370  23.232  0.00  0.00    +0.000 N 
ATOM     32  C   UNL     1       7.991   4.806  23.165  0.00  0.00    +0.000 C 
BRANCH  31  33
ATOM     33  C   UNL     1       6.646   2.680  23.018  0.00  0.00    +0.000 C 
ATOM     34  C   UNL     1       5.530   3.340  23.835  0.00  0.00    +0.000 C 
ATOM     35  C   UNL     1       6.233   2.591  21.578  0.00  0.00    +0.000 C 
ENDBRANCH  31  33
ENDBRANCH  26  29
ENDBRANCH  20  21
ENDBRANCH  19  20
ENDBRANCH  10  19
TORSDOF 6
ENDMDL
MODEL 4
REMARK VINA RESULT:      -8.0      2.236      4.459
REMARK  Name = 
REMARK  9 active torsions:
REMARK  status: ('A' for Active; 'I' for Inactive)
REMARK    1  A    between atoms: C_7  and  C_8
REMARK    2  A    between atoms: C_24  and  C_26
REMARK    3  A    between atoms: C_26  and  C_29
REMARK    4  A    between atoms: C_29  and  C_32
REMARK    5  A    between atoms: C_41  and  C_43
REMARK    6  A    between atoms: N_45  and  C_46
REMARK    7  A    between atoms: N_45  and  C_50
REMARK    8  A    between atoms: C_50  and  C_52
REMARK    9  A    between atoms: C_50  and  C_56
REMARK                            x       y       z     vdW  Elec       q    Type
REMARK                         _______ _______ _______ _____ _____    ______ ____
ROOT
ATOM      1  C   UNL     1       7.339   1.333  21.668  0.00  0.00    +0.000 C 
ATOM      2  C   UNL     1       8.740   1.230  21.952  0.00  0.00    +0.000 A 
ATOM      3  C   UNL     1       9.048  -0.245  21.953  0.00  0.00    +0.000 A 
ATOM      4  C   UNL     1      10.204  -0.804  22.601  0.00  0.00    +0.000 A 
ATOM      5  C   UNL     1      10.719   0.297  23.546  0.00  0.00    +0.000 A 
ATOM      6  C   UNL     1      10.417   1.650  23.817  0.00  0.00    +0.000 A 
ATOM      7  C   UNL     1       8.930   1.748  23.435  0.00  0.00    +0.000 A 
ATOM      8  C   UNL     1       7.993   1.682  24.644  0.00  0.00    +0.000 C 
ATOM      9  N   UNL     1       6.811   1.499  24.086  0.00  0.00    +0.000 N 
ATOM     10  C   UNL     1       5.657   0.959  24.740  0.00  0.00    +0.000 C 
ATOM     11  O   UNL     1       5.095   2.055  25.140  0.00  0.00    +0.000 OA
ATOM     12  C   UNL     1       6.479   1.746  22.786  0.00  0.00    +0.000 C 
ENDROOT
BRANCH   1  16
ATOM     13  C   UNL     1       6.125   1.224  17.793  0.00  0.00    +0.000 A 
ATOM     14  C   UNL     1       5.139   1.258  18.915  0.00  0.00    +0.000 A 
ATOM     15  C   UNL     1       5.339   0.842  20.316  0.00  0.00    +0.000 A 
ATOM     16  C   UNL     1       6.820   0.630  20.568  0.00  0.00    +0.000 A 
ATOM     17  C   UNL     1       7.769   0.043  19.537  0.00  0.00    +0.000 A 
ATOM     18  C   UNL     1       7.351   0.443  18.109  0.00  0.00    +0.000 A 
ENDBRANCH   1  16
BRANCH  10  19
ATOM     19  C   UNL     1       5.916   0.002  25.727  0.00  0.00    +0.000 C 
BRANCH  19  20
ATOM     20  C   UNL     1       6.167  -1.420  25.682  0.00  0.00    +0.000 C 
BRANCH  20  21
ATOM     21  C   UNL     1       7.448  -2.024  25.966  0.00  0.00    +0.000 C 
ATOM     22  O   UNL     1       8.427  -1.156  26.126  0.00  0.00    +0.000 OA
ATOM     23  N   UNL     1       7.690  -3.216  26.534  0.00  0.00    +0.000 N 
ATOM     24  C   UNL     1       6.731  -4.174  27.011  0.00  0.00    +0.000 C 
ATOM     25  C   UNL     1       6.553  -5.242  25.929  0.00  0.00    +0.000 C 
ATOM     26  C   UNL     1       7.834  -5.444  25.141  0.00  0.00    +0.000 C 
ATOM     27  C   UNL     1       9.028  -5.209  26.031  0.00  0.00    +0.000 C 
ATOM     28  C   UNL     1       9.073  -3.763  26.489  0.00  0.00    +0.000 C 
BRANCH  26  29
ATOM     29  C   UNL     1       7.889  -4.546  23.955  0.00  0.00    +0.000 C 
ATOM     30  O   UNL     1       8.796  -3.763  23.743  0.00  0.00    +0.000 OA
ATOM     31  N   UNL     1       6.849  -4.607  23.043  0.00  0.00    +0.000 N 
ATOM     32  C   UNL     1       6.930  -5.608  22.011  0.00  0.00    +0.000 C 
BRANCH  31  33
ATOM     33  C   UNL     1       6.015  -3.440  22.910  0.00  0.00    +0.000 C 
ATOM     34  C   UNL     1       6.091  -2.898  21.477  0.00  0.00    +0.000 C 
ATOM     35  C   UNL     1       4.582  -3.662  23.291  0.00  0.00    +0.000 C 
ENDBRANCH  31  33
ENDBRANCH  26  29
ENDBRANCH  20  21
ENDBRANCH  19  20
ENDBRANCH  10  19
TORSDOF 6
ENDMDL
MODEL 5
REMARK VINA RESULT:      -7.9      2.239      4.722
REMARK  Name = 
REMARK  9 active torsions:
REMARK  status: ('A' for Active; 'I' for Inactive)
REMARK    1  A    between atoms: C_7  and  C_8
REMARK    2  A    between atoms: C_24  and  C_26
REMARK    3  A    between atoms: C_26  and  C_29
REMARK    4  A    between atoms: C_29  and  C_32
REMARK    5  A    between atoms: C_41  and  C_43
REMARK    6  A    between atoms: N_45  and  C_46
REMARK    7  A    between atoms: N_45  and  C_50
REMARK    8  A    between atoms: C_50  and  C_52
REMARK    9  A    between atoms: C_50  and  C_56
REMARK                            x       y       z     vdW  Elec       q    Type
REMARK                         _______ _______ _______ _____ _____    ______ ____
ROOT
ATOM      1  C   UNL     1       7.194   1.307  21.858  0.00  0.00    +0.000 C 
ATOM      2  C   UNL     1       8.278   2.222  22.061  0.00  0.00    +0.000 A 
ATOM      3  C   UNL     1       9.497   1.364  22.278  0.00  0.00    +0.000 A 
ATOM      4  C   UNL     1      10.688   1.844  22.929  0.00  0.00    +0.000 A 
ATOM      5  C   UNL     1      10.269   3.138  23.649  0.00  0.00    +0.000 A 
ATOM      6  C   UNL     1       9.119   3.955  23.720  0.00  0.00    +0.000 A 
ATOM      7  C   UNL     1       7.981   2.964  23.427  0.00  0.00    +0.000 A 
ATOM      8  C   UNL     1       7.262   2.482  24.690  0.00  0.00    +0.000 C 
ATOM      9  N   UNL     1       6.548   1.465  24.248  0.00  0.00    +0.000 N 
ATOM     10  C   UNL     1       6.022   0.404  25.054  0.00  0.00    +0.000 C 
ATOM     11  O   UNL     1       4.846   0.881  25.310  0.00  0.00    +0.000 OA
ATOM     12  C   UNL     1       6.214   1.208  22.950  0.00  0.00    +0.000 C 
ENDROOT
BRANCH   1  16
ATOM     13  C   UNL     1       5.607  -1.365  19.243  0.00  0.00    +0.000 A 
ATOM     14  C   UNL     1       6.091  -1.791  20.590  0.00  0.00    +0.000 A 
ATOM     15  C   UNL     1       7.078  -1.121  21.457  0.00  0.00    +0.000 A 
ATOM     16  C   UNL     1       7.350   0.272  20.921  0.00  0.00    +0.000 A 
ATOM     17  C   UNL     1       7.403   0.603  19.439  0.00  0.00    +0.000 A 
ATOM     18  C   UNL     1       6.422  -0.277  18.640  0.00  0.00    +0.000 A 
ENDBRANCH   1  16
BRANCH  10  19
ATOM     19  C   UNL     1       6.799   0.048  26.162  0.00  0.00    +0.000 C 
BRANCH  19  20
ATOM     20  C   UNL     1       7.670  -1.070  26.439  0.00  0.00    +0.000 C 
BRANCH  20  21
ATOM     21  C   UNL     1       8.281  -1.891  25.419  0.00  0.00    +0.000 C 
ATOM     22  O   UNL     1       8.763  -1.208  24.400  0.00  0.00    +0.000 OA
ATOM     23  N   UNL     1       8.834  -3.106  25.559  0.00  0.00    +0.000 N 
ATOM     24  C   UNL     1       8.962  -3.881  26.763  0.00  0.00    +0.000 C 
ATOM     25  C   UNL     1       7.821  -4.901  26.791  0.00  0.00    +0.000 C 
ATOM     26  C   UNL     1       7.429  -5.325  25.388  0.00  0.00    +0.000 C 
ATOM     27  C   UNL     1       8.638  -5.304  24.487  0.00  0.00    +0.000 C 
ATOM     28  C   UNL     1       9.163  -3.888  24.337  0.00  0.00    +0.000 C 
BRANCH  26  29
ATOM     29  C   UNL     1       6.358  -4.451  24.836  0.00  0.00    +0.000 C 
ATOM     30  O   UNL     1       6.471  -3.814  23.806  0.00  0.00    +0.000 OA
ATOM     31  N   UNL     1       5.167  -4.361  25.535  0.00  0.00    +0.000 N 
ATOM     32  C   UNL     1       4.169  -5.367  25.279  0.00  0.00    +0.000 C 
BRANCH  31  33
ATOM     33  C   UNL     1       4.831  -3.082  26.108  0.00  0.00    +0.000 C 
ATOM     34  C   UNL     1       3.439  -2.642  25.639  0.00  0.00    +0.000 C 
ATOM     35  C   UNL     1       4.894  -3.045  27.607  0.00  0.00    +0.000 C 
ENDBRANCH  31  33
ENDBRANCH  26  29
ENDBRANCH  20  21
ENDBRANCH  19  20
ENDBRANCH  10  19
TORSDOF 6
ENDMDL
MODEL 6
REMARK VINA RESULT:      -7.8      2.335      7.784
REMARK  Name = 
REMARK  9 active torsions:
REMARK  status: ('A' for Active; 'I' for Inactive)
REMARK    1  A    between atoms: C_7  and  C_8
REMARK    2  A    between atoms: C_24  and  C_26
REMARK    3  A    between atoms: C_26  and  C_29
REMARK    4  A    between atoms: C_29  and  C_32
REMARK    5  A    between atoms: C_41  and  C_43
REMARK    6  A    between atoms: N_45  and  C_46
REMARK    7  A    between atoms: N_45  and  C_50
REMARK    8  A    between atoms: C_50  and  C_52
REMARK    9  A    between atoms: C_50  and  C_56
REMARK                            x       y       z     vdW  Elec       q    Type
REMARK                         _______ _______ _______ _____ _____    ______ ____
ROOT
ATOM      1  C   UNL     1       5.268  -4.943  24.775  0.00  0.00    +0.000 C 
ATOM      2  C   UNL     1       6.545  -5.112  25.402  0.00  0.00    +0.000 A 
ATOM      3  C   UNL     1       6.779  -3.853  26.194  0.00  0.00    +0.000 A 
ATOM      4  C   UNL     1       8.086  -3.423  26.617  0.00  0.00    +0.000 A 
ATOM      5  C   UNL     1       9.080  -4.237  25.769  0.00  0.00    +0.000 A 
ATOM      6  C   UNL     1       9.017  -5.296  24.837  0.00  0.00    +0.000 A 
ATOM      7  C   UNL     1       7.612  -5.133  24.233  0.00  0.00    +0.000 A 
ATOM      8  C   UNL     1       7.619  -4.429  22.874  0.00  0.00    +0.000 C 
ATOM      9  N   UNL     1       6.344  -4.149  22.685  0.00  0.00    +0.000 N 
ATOM     10  C   UNL     1       5.834  -3.146  21.799  0.00  0.00    +0.000 C 
ATOM     11  O   UNL     1       5.645  -3.862  20.737  0.00  0.00    +0.000 OA
ATOM     12  C   UNL     1       5.282  -4.724  23.321  0.00  0.00    +0.000 C 
ENDROOT
BRANCH   1  16
ATOM     13  C   UNL     1       3.777  -3.184  28.119  0.00  0.00    +0.000 A 
ATOM     14  C   UNL     1       3.805  -4.670  27.970  0.00  0.00    +0.000 A 
ATOM     15  C   UNL     1       3.855  -5.460  26.727  0.00  0.00    +0.000 A 
ATOM     16  C   UNL     1       4.176  -4.541  25.563  0.00  0.00    +0.000 A 
ATOM     17  C   UNL     1       3.654  -3.119  25.450  0.00  0.00    +0.000 A 
ATOM     18  C   UNL     1       3.516  -2.469  26.840  0.00  0.00    +0.000 A 
ENDBRANCH   1  16
BRANCH  10  19
ATOM     19  C   UNL     1       6.641  -2.013  21.644  0.00  0.00    +0.000 C 
BRANCH  19  20
ATOM     20  C   UNL     1       7.137  -1.020  22.568  0.00  0.00    +0.000 C 
BRANCH  20  21
ATOM     21  C   UNL     1       8.460  -0.444  22.503  0.00  0.00    +0.000 C 
ATOM     22  O   UNL     1       9.430  -1.334  22.440  0.00  0.00    +0.000 OA
ATOM     23  N   UNL     1       8.812   0.765  22.038  0.00  0.00    +0.000 N 
ATOM     24  C   UNL     1       7.955   1.775  21.479  0.00  0.00    +0.000 C 
ATOM     25  C   UNL     1       7.649   2.795  22.579  0.00  0.00    +0.000 C 
ATOM     26  C   UNL     1       8.807   2.918  23.552  0.00  0.00    +0.000 C 
ATOM     27  C   UNL     1      10.111   2.688  22.831  0.00  0.00    +0.000 C 
ATOM     28  C   UNL     1      10.187   1.265  22.309  0.00  0.00    +0.000 C 
BRANCH  26  29
ATOM     29  C   UNL     1       8.668   1.963  24.685  0.00  0.00    +0.000 C 
ATOM     30  O   UNL     1       9.532   1.169  25.009  0.00  0.00    +0.000 OA
ATOM     31  N   UNL     1       7.489   1.980  25.410  0.00  0.00    +0.000 N 
ATOM     32  C   UNL     1       7.386   2.929  26.489  0.00  0.00    +0.000 C 
BRANCH  31  33
ATOM     33  C   UNL     1       6.653   0.808  25.343  0.00  0.00    +0.000 C 
ATOM     34  C   UNL     1       6.708   0.043  26.671  0.00  0.00    +0.000 C 
ATOM     35  C   UNL     1       5.225   1.092  24.982  0.00  0.00    +0.000 C 
ENDBRANCH  31  33
ENDBRANCH  26  29
ENDBRANCH  20  21
ENDBRANCH  19  20
ENDBRANCH  10  19
TORSDOF 6
ENDMDL
MODEL 7
REMARK VINA RESULT:      -7.6      2.416      4.273
REMARK  Name = 
REMARK  9 active torsions:
REMARK  status: ('A' for Active; 'I' for Inactive)
REMARK    1  A    between atoms: C_7  and  C_8
REMARK    2  A    between atoms: C_24  and  C_26
REMARK    3  A    between atoms: C_26  and  C_29
REMARK    4  A    between atoms: C_29  and  C_32
REMARK    5  A    between atoms: C_41  and  C_43
REMARK    6  A    between atoms: N_45  and  C_46
REMARK    7  A    between atoms: N_45  and  C_50
REMARK    8  A    between atoms: C_50  and  C_52
REMARK    9  A    between atoms: C_50  and  C_56
REMARK                            x       y       z     vdW  Elec       q    Type
REMARK                         _______ _______ _______ _____ _____    ______ ____
ROOT
ATOM      1  C   UNL     1       7.914   2.878  23.657  0.00  0.00    +0.000 C 
ATOM      2  C   UNL     1       9.114   2.229  23.217  0.00  0.00    +0.000 A 
ATOM      3  C   UNL     1       8.708   1.377  22.043  0.00  0.00    +0.000 A 
ATOM      4  C   UNL     1       9.486   0.258  21.581  0.00  0.00    +0.000 A 
ATOM      5  C   UNL     1      10.461  -0.066  22.727  0.00  0.00    +0.000 A 
ATOM      6  C   UNL     1      10.819   0.500  23.970  0.00  0.00    +0.000 A 
ATOM      7  C   UNL     1       9.540   1.248  24.382  0.00  0.00    +0.000 A 
ATOM      8  C   UNL     1       8.693   0.476  25.397  0.00  0.00    +0.000 C 
ATOM      9  N   UNL     1       7.553   1.140  25.390  0.00  0.00    +0.000 N 
ATOM     10  C   UNL     1       6.288   0.626  25.823  0.00  0.00    +0.000 C 
ATOM     11  O   UNL     1       6.298   1.021  27.056  0.00  0.00    +0.000 OA
ATOM     12  C   UNL     1       7.355   2.411  24.934  0.00  0.00    +0.000 C 
ENDROOT
BRANCH   1  16
ATOM     13  C   UNL     1       4.813   5.336  22.740  0.00  0.00    +0.000 A 
ATOM     14  C   UNL     1       4.700   3.854  22.591  0.00  0.00    +0.000 A 
ATOM     15  C   UNL     1       5.784   2.870  22.418  0.00  0.00    +0.000 A 
ATOM     16  C   UNL     1       7.115   3.537  22.708  0.00  0.00    +0.000 A 
ATOM     17  C   UNL     1       7.429   4.976  22.334  0.00  0.00    +0.000 A 
ATOM     18  C   UNL     1       6.169   5.858  22.420  0.00  0.00    +0.000 A 
ENDBRANCH   1  16
BRANCH  10  19
ATOM     19  C   UNL     1       6.090  -0.743  25.615  0.00  0.00    +0.000 C 
BRANCH  19  20
ATOM     20  C   UNL     1       5.961  -1.553  24.426  0.00  0.00    +0.000 C 
BRANCH  20  21
ATOM     21  C   UNL     1       5.063  -2.678  24.308  0.00  0.00    +0.000 C 
ATOM     22  O   UNL     1       3.989  -2.589  25.066  0.00  0.00    +0.000 OA
ATOM     23  N   UNL     1       4.914  -3.509  23.264  0.00  0.00    +0.000 N 
ATOM     24  C   UNL     1       5.605  -3.471  22.004  0.00  0.00    +0.000 C 
ATOM     25  C   UNL     1       6.748  -4.487  22.063  0.00  0.00    +0.000 C 
ATOM     26  C   UNL     1       6.392  -5.664  22.952  0.00  0.00    +0.000 C 
ATOM     27  C   UNL     1       4.909  -5.932  22.882  0.00  0.00    +0.000 C 
ATOM     28  C   UNL     1       4.130  -4.760  23.451  0.00  0.00    +0.000 C 
BRANCH  26  29
ATOM     29  C   UNL     1       6.808  -5.426  24.361  0.00  0.00    +0.000 C 
ATOM     30  O   UNL     1       6.066  -5.561  25.316  0.00  0.00    +0.000 OA
ATOM     31  N   UNL     1       8.112  -5.028  24.596  0.00  0.00    +0.000 N 
ATOM     32  C   UNL     1       9.111  -6.059  24.710  0.00  0.00    +0.000 C 
BRANCH  31  33
ATOM     33  C   UNL     1       8.315  -3.707  25.136  0.00  0.00    +0.000 C 
ATOM     34  C   UNL     1       8.581  -3.788  26.644  0.00  0.00    +0.000 C 
ATOM     35  C   UNL     1       9.414  -2.933  24.470  0.00  0.00    +0.000 C 
ENDBRANCH  31  33
ENDBRANCH  26  29
ENDBRANCH  20  21
ENDBRANCH  19  20
ENDBRANCH  10  19
TORSDOF 6
ENDMDL
MODEL 8
REMARK VINA RESULT:      -7.6      1.798      3.538
REMARK  Name = 
REMARK  9 active torsions:
REMARK  status: ('A' for Active; 'I' for Inactive)
REMARK    1  A    between atoms: C_7  and  C_8
REMARK    2  A    between atoms: C_24  and  C_26
REMARK    3  A    between atoms: C_26  and  C_29
REMARK    4  A    between atoms: C_29  and  C_32
REMARK    5  A    between atoms: C_41  and  C_43
REMARK    6  A    between atoms: N_45  and  C_46
REMARK    7  A    between atoms: N_45  and  C_50
REMARK    8  A    between atoms: C_50  and  C_52
REMARK    9  A    between atoms: C_50  and  C_56
REMARK                            x       y       z     vdW  Elec       q    Type
REMARK                         _______ _______ _______ _____ _____    ______ ____
ROOT
ATOM      1  C   UNL     1       9.495   1.846  24.087  0.00  0.00    +0.000 C 
ATOM      2  C   UNL     1       9.752   1.131  22.871  0.00  0.00    +0.000 A 
ATOM      3  C   UNL     1       8.465   1.181  22.091  0.00  0.00    +0.000 A 
ATOM      4  C   UNL     1       8.149   0.251  21.039  0.00  0.00    +0.000 A 
ATOM      5  C   UNL     1       9.135  -0.918  21.214  0.00  0.00    +0.000 A 
ATOM      6  C   UNL     1      10.254  -1.213  22.024  0.00  0.00    +0.000 A 
ATOM      7  C   UNL     1       9.987  -0.377  23.287  0.00  0.00    +0.000 A 
ATOM      8  C   UNL     1       9.404  -1.199  24.439  0.00  0.00    +0.000 C 
ATOM      9  N   UNL     1       9.001  -0.270  25.285  0.00  0.00    +0.000 N 
ATOM     10  C   UNL     1       8.024  -0.450  26.316  0.00  0.00    +0.000 C 
ATOM     11  O   UNL     1       8.800  -0.754  27.307  0.00  0.00    +0.000 OA
ATOM     12  C   UNL     1       9.400   1.035  25.310  0.00  0.00    +0.000 C 
ENDROOT
BRANCH   1  16
ATOM     13  C   UNL     1       8.859   5.544  25.641  0.00  0.00    +0.000 A 
ATOM     14  C   UNL     1       7.809   4.483  25.707  0.00  0.00    +0.000 A 
ATOM     15  C   UNL     1       7.654   3.301  24.840  0.00  0.00    +0.000 A 
ATOM     16  C   UNL     1       8.911   3.121  24.010  0.00  0.00    +0.000 A 
ATOM     17  C   UNL     1       9.715   4.281  23.448  0.00  0.00    +0.000 A 
ATOM     18  C   UNL     1       9.667   5.498  24.393  0.00  0.00    +0.000 A 
ENDBRANCH   1  16
BRANCH  10  19
ATOM     19  C   UNL     1       7.004  -1.364  26.028  0.00  0.00    +0.000 C 
BRANCH  19  20
ATOM     20  C   UNL     1       6.945  -2.550  25.205  0.00  0.00    +0.000 C 
BRANCH  20  21
ATOM     21  C   UNL     1       6.521  -2.556  23.824  0.00  0.00    +0.000 C 
ATOM     22  O   UNL     1       6.022  -1.408  23.411  0.00  0.00    +0.000 OA
ATOM     23  N   UNL     1       6.969  -3.335  22.827  0.00  0.00    +0.000 N 
ATOM     24  C   UNL     1       7.990  -4.345  22.891  0.00  0.00    +0.000 C 
ATOM     25  C   UNL     1       7.301  -5.705  23.029  0.00  0.00    +0.000 C 
ATOM     26  C   UNL     1       5.956  -5.712  22.327  0.00  0.00    +0.000 C 
ATOM     27  C   UNL     1       5.999  -4.807  21.122  0.00  0.00    +0.000 C 
ATOM     28  C   UNL     1       6.212  -3.366  21.547  0.00  0.00    +0.000 C 
BRANCH  26  29
ATOM     29  C   UNL     1       4.862  -5.296  23.247  0.00  0.00    +0.000 C 
ATOM     30  O   UNL     1       4.057  -4.421  22.986  0.00  0.00    +0.000 OA
ATOM     31  N   UNL     1       4.754  -5.943  24.466  0.00  0.00    +0.000 N 
ATOM     32  C   UNL     1       4.012  -7.177  24.499  0.00  0.00    +0.000 C 
BRANCH  31  33
ATOM     33  C   UNL     1       4.989  -5.162  25.653  0.00  0.00    +0.000 C 
ATOM     34  C   UNL     1       3.672  -4.932  26.403  0.00  0.00    +0.000 C 
ATOM     35  C   UNL     1       6.006  -5.752  26.586  0.00  0.00    +0.000 C 
ENDBRANCH  31  33
ENDBRANCH  26  29
ENDBRANCH  20  21
ENDBRANCH  19  20
ENDBRANCH  10  19
TORSDOF 6
ENDMDL
MODEL 9
REMARK VINA RESULT:      -7.6      3.774      7.767
REMARK  Name = 
REMARK  9 active torsions:
REMARK  status: ('A' for Active; 'I' for Inactive)
REMARK    1  A    between atoms: C_7  and  C_8
REMARK    2  A    between atoms: C_24  and  C_26
REMARK    3  A    between atoms: C_26  and  C_29
REMARK    4  A    between atoms: C_29  and  C_32
REMARK    5  A    between atoms: C_41  and  C_43
REMARK    6  A    between atoms: N_45  and  C_46
REMARK    7  A    between atoms: N_45  and  C_50
REMARK    8  A    between atoms: C_50  and  C_52
REMARK    9  A    between atoms: C_50  and  C_56
REMARK                            x       y       z     vdW  Elec       q    Type
REMARK                         _______ _______ _______ _____ _____    ______ ____
ROOT
ATOM      1  C   UNL     1       8.460  -2.320  22.744  0.00  0.00    +0.000 C 
ATOM      2  C   UNL     1       9.381  -1.744  23.678  0.00  0.00    +0.000 A 
ATOM      3  C   UNL     1       8.534  -1.160  24.778  0.00  0.00    +0.000 A 
ATOM      4  C   UNL     1       9.007  -0.140  25.675  0.00  0.00    +0.000 A 
ATOM      5  C   UNL     1      10.270   0.438  25.010  0.00  0.00    +0.000 A 
ATOM      6  C   UNL     1      11.068   0.148  23.882  0.00  0.00    +0.000 A 
ATOM      7  C   UNL     1      10.072  -0.533  22.929  0.00  0.00    +0.000 A 
ATOM      8  C   UNL     1       9.537   0.407  21.846  0.00  0.00    +0.000 C 
ATOM      9  N   UNL     1       8.526  -0.274  21.342  0.00  0.00    +0.000 N 
ATOM     10  C   UNL     1       7.431   0.283  20.606  0.00  0.00    +0.000 C 
ATOM     11  O   UNL     1       7.884   0.149  19.400  0.00  0.00    +0.000 OA
ATOM     12  C   UNL     1       8.310  -1.616  21.462  0.00  0.00    +0.000 C 
ENDROOT
BRANCH   1  16
ATOM     13  C   UNL     1       5.746  -5.280  22.133  0.00  0.00    +0.000 A 
ATOM     14  C   UNL     1       5.323  -3.853  22.258  0.00  0.00    +0.000 A 
ATOM     15  C   UNL     1       6.039  -2.745  22.918  0.00  0.00    +0.000 A 
ATOM     16  C   UNL     1       7.459  -3.181  23.225  0.00  0.00    +0.000 A 
ATOM     17  C   UNL     1       7.827  -4.589  23.659  0.00  0.00    +0.000 A 
ATOM     18  C   UNL     1       6.901  -5.631  23.002  0.00  0.00    +0.000 A 
ENDBRANCH   1  16
BRANCH  10  19
ATOM     19  C   UNL     1       7.048   1.575  20.981  0.00  0.00    +0.000 C 
BRANCH  19  20
ATOM     20  C   UNL     1       6.879   2.222  22.262  0.00  0.00    +0.000 C 
BRANCH  20  21
ATOM     21  C   UNL     1       5.599   2.604  22.812  0.00  0.00    +0.000 C 
ATOM     22  O   UNL     1       4.687   2.885  21.902  0.00  0.00    +0.000 OA
ATOM     23  N   UNL     1       5.081   2.273  24.005  0.00  0.00    +0.000 N 
ATOM     24  C   UNL     1       5.672   1.444  25.020  0.00  0.00    +0.000 C 
ATOM     25  C   UNL     1       6.310   2.362  26.066  0.00  0.00    +0.000 C 
ATOM     26  C   UNL     1       5.549   3.670  26.186  0.00  0.00    +0.000 C 
ATOM     27  C   UNL     1       4.083   3.439  25.918  0.00  0.00    +0.000 C 
ATOM     28  C   UNL     1       3.869   2.990  24.484  0.00  0.00    +0.000 C 
BRANCH  26  29
ATOM     29  C   UNL     1       6.088   4.699  25.255  0.00  0.00    +0.000 C 
ATOM     30  O   UNL     1       5.396   5.354  24.499  0.00  0.00    +0.000 OA
ATOM     31  N   UNL     1       7.454   4.922  25.252  0.00  0.00    +0.000 N 
ATOM     32  C   UNL     1       7.978   5.847  26.223  0.00  0.00    +0.000 C 
BRANCH  31  33
ATOM     33  C   UNL     1       8.178   4.585  24.052  0.00  0.00    +0.000 C 
ATOM     34  C   UNL     1       8.542   5.859  23.280  0.00  0.00    +0.000 C 
ATOM     35  C   UNL     1       9.413   3.767  24.289  0.00  0.00    +0.000 C 
ENDBRANCH  31  33
ENDBRANCH  26  29
ENDBRANCH  20  21
ENDBRANCH  19  20
ENDBRANCH  10  19
TORSDOF 6
ENDMDL
