MODEL 1
REMARK VINA RESULT:      -8.6      0.000      0.000
REMARK  Name = 
REMARK  5 active torsions:
REMARK  status: ('A' for Active; 'I' for Inactive)
REMARK    1  A    between atoms: C_5  and  C_6
REMARK    2  A    between atoms: C_6  and  S_9
REMARK    3  A    between atoms: S_9  and  N_12
REMARK    4  A    between atoms: C_15  and  C_16
REMARK    5  A    between atoms: C_28  and  C_30
REMARK                            x       y       z     vdW  Elec       q    Type
REMARK                         _______ _______ _______ _____ _____    ______ ____
ROOT
ATOM      1  C   UNL     1       7.419  -1.178  22.271  0.00  0.00    +0.000 C 
ATOM      2  O   UNL     1       6.710  -1.995  21.813  0.00  0.00    +0.000 OA
ATOM      3  N   UNL     1       7.547  -0.946  23.626  0.00  0.00    +0.000 N 
ATOM      4  C   UNL     1       6.468  -0.170  24.214  0.00  0.00    +0.000 C 
ATOM      5  C   UNL     1       5.929  -0.886  25.430  0.00  0.00    +0.000 C 
ATOM      6  C   UNL     1       7.078  -1.137  26.412  0.00  0.00    +0.000 C 
ATOM      7  C   UNL     1       8.160  -1.962  25.816  0.00  0.00    +0.000 C 
ATOM      8  C   UNL     1       8.033  -2.142  24.320  0.00  0.00    +0.000 C 
ENDROOT
BRANCH   7   9
ATOM      9  C   UNL     1       8.468  -3.249  26.493  0.00  0.00    +0.000 C 
ATOM     10  N   UNL     1       9.186  -4.225  25.633  0.00  0.00    +0.000 NA
ATOM     11  C   UNL     1       8.471  -5.447  25.519  0.00  0.00    +0.000 A 
ATOM     12  C   UNL     1       8.516  -5.626  24.224  0.00  0.00    +0.000 A 
ATOM     13  C   UNL     1       7.583  -5.710  22.992  0.00  0.00    +0.000 A 
ATOM     14  C   UNL     1       6.405  -5.279  23.711  0.00  0.00    +0.000 A 
ATOM     15  C   UNL     1       5.783  -5.113  24.989  0.00  0.00    +0.000 A 
ATOM     16  C   UNL     1       7.032  -5.355  25.904  0.00  0.00    +0.000 A 
ATOM     17  S   UNL     1       7.073  -4.167  27.008  0.00  0.00    +0.000 S 
ENDBRANCH   7   9
BRANCH   1  21
ATOM     18  C   UNL     1       8.394   2.581  22.173  0.00  0.00    +0.000 A 
ATOM     19  C   UNL     1       7.267   1.942  21.398  0.00  0.00    +0.000 A 
ATOM     20  C   UNL     1       7.249   0.617  20.835  0.00  0.00    +0.000 A 
ATOM     21  C   UNL     1       8.317  -0.303  21.495  0.00  0.00    +0.000 A 
ATOM     22  C   UNL     1       9.557   0.219  22.136  0.00  0.00    +0.000 A 
ATOM     23  C   UNL     1       9.560   1.738  22.412  0.00  0.00    +0.000 A 
ATOM     24  F   UNL     1      10.616   2.231  21.680  0.00  0.00    +0.000 F 
BRANCH  20  25
ATOM     25  C   UNL     1       7.350   0.651  19.323  0.00  0.00    +0.000 C 
BRANCH  25  26
ATOM     26  S   UNL     1       5.768   0.166  18.680  0.00  0.00    +0.000 S 
ATOM     27  O   UNL     1       4.855   1.258  18.918  0.00  0.00    +0.000 OA
ATOM     28  O   UNL     1       5.933  -0.214  17.303  0.00  0.00    +0.000 OA
BRANCH  26  29
ATOM     29  N   UNL     1       5.209  -1.155  19.500  0.00  0.00    +0.000 NA
ATOM     30  H   UNL     1       5.297  -1.969  18.881  0.00  0.00    +0.000 HD
ATOM     31  H   UNL     1       4.205  -1.062  19.625  0.00  0.00    +0.000 HD
ENDBRANCH  26  29
ENDBRANCH  25  26
ENDBRANCH  20  25
ENDBRANCH   1  21
TORSDOF 5
ENDMDL
MODEL 2
REMARK VINA RESULT:      -8.5      1.274      1.692
REMARK  Name = 
REMARK  5 active torsions:
REMARK  status: ('A' for Active; 'I' for Inactive)
REMARK    1  A    between atoms: C_5  and  C_6
REMARK    2  A    between atoms: C_6  and  S_9
REMARK    3  A    between atoms: S_9  and  N_12
REMARK    4  A    between atoms: C_15  and  C_16
REMARK    5  A    between atoms: C_28  and  C_30
REMARK                            x       y       z     vdW  Elec       q    Type
REMARK                         _______ _______ _______ _____ _____    ______ ____
ROOT
ATOM      1  C   UNL     1       7.014  -1.420  22.134  0.00  0.00    +0.000 C 
ATOM      2  O   UNL     1       6.148  -1.974  21.567  0.00  0.00    +0.000 OA
ATOM      3  N   UNL     1       7.137  -1.393  23.509  0.00  0.00    +0.000 N 
ATOM      4  C   UNL     1       6.256  -0.451  24.179  0.00  0.00    +0.000 C 
ATOM      5  C   UNL     1       5.508  -1.154  25.287  0.00  0.00    +0.000 C 
ATOM      6  C   UNL     1       6.518  -1.798  26.242  0.00  0.00    +0.000 C 
ATOM      7  C   UNL     1       7.391  -2.786  25.558  0.00  0.00    +0.000 C 
ATOM      8  C   UNL     1       7.287  -2.747  24.049  0.00  0.00    +0.000 C 
ENDROOT
BRANCH   7   9
ATOM      9  C   UNL     1       7.347  -4.182  26.067  0.00  0.00    +0.000 C 
ATOM     10  N   UNL     1       6.909  -5.179  25.057  0.00  0.00    +0.000 NA
ATOM     11  C   UNL     1       5.764  -5.898  25.492  0.00  0.00    +0.000 A 
ATOM     12  C   UNL     1       5.011  -5.810  24.426  0.00  0.00    +0.000 A 
ATOM     13  C   UNL     1       3.663  -5.214  23.956  0.00  0.00    +0.000 A 
ATOM     14  C   UNL     1       3.445  -4.456  25.168  0.00  0.00    +0.000 A 
ATOM     15  C   UNL     1       3.782  -4.292  26.548  0.00  0.00    +0.000 A 
ATOM     16  C   UNL     1       5.022  -5.249  26.613  0.00  0.00    +0.000 A 
ATOM     17  S   UNL     1       6.218  -4.458  27.372  0.00  0.00    +0.000 S 
ENDBRANCH   7   9
BRANCH   1  21
ATOM     18  C   UNL     1       8.474   2.180  22.066  0.00  0.00    +0.000 A 
ATOM     19  C   UNL     1       7.411   1.642  21.139  0.00  0.00    +0.000 A 
ATOM     20  C   UNL     1       7.310   0.300  20.628  0.00  0.00    +0.000 A 
ATOM     21  C   UNL     1       8.131  -0.707  21.487  0.00  0.00    +0.000 A 
ATOM     22  C   UNL     1       9.310  -0.305  22.304  0.00  0.00    +0.000 A 
ATOM     23  C   UNL     1       9.467   1.215  22.524  0.00  0.00    +0.000 A 
ATOM     24  F   UNL     1      10.682   1.533  21.959  0.00  0.00    +0.000 F 
BRANCH  20  25
ATOM     25  C   UNL     1       7.654   0.237  19.153  0.00  0.00    +0.000 C 
BRANCH  25  26
ATOM     26  S   UNL     1       6.123   0.137  18.260  0.00  0.00    +0.000 S 
ATOM     27  O   UNL     1       6.047   1.300  17.409  0.00  0.00    +0.000 OA
ATOM     28  O   UNL     1       6.071  -1.130  17.583  0.00  0.00    +0.000 OA
BRANCH  26  29
ATOM     29  N   UNL     1       4.853   0.193  19.315  0.00  0.00    +0.000 NA
ATOM     30  H   UNL     1       4.481  -0.758  19.409  0.00  0.00    +0.000 HD
ATOM     31  H   UNL     1       4.088   0.703  18.881  0.00  0.00    +0.000 HD
ENDBRANCH  26  29
ENDBRANCH  25  26
ENDBRANCH  20  25
ENDBRANCH   1  21
TORSDOF 5
ENDMDL
MODEL 3
REMARK VINA RESULT:      -8.4      1.933      3.230
REMARK  Name = 
REMARK  5 active torsions:
REMARK  status: ('A' for Active; 'I' for Inactive)
REMARK    1  A    between atoms: C_5  and  C_6
REMARK    2  A    between atoms: C_6  and  S_9
REMARK    3  A    between atoms: S_9  and  N_12
REMARK    4  A    between atoms: C_15  and  C_16
REMARK    5  A    between atoms: C_28  and  C_30
REMARK                            x       y       z     vdW  Elec       q    Type
REMARK                         _______ _______ _______ _____ _____    ______ ____
ROOT
ATOM      1  C   UNL     1       7.939  -1.078  23.021  0.00  0.00    +0.000 C 
ATOM      2  O   UNL     1       7.197  -0.589  23.788  0.00  0.00    +0.000 OA
ATOM      3  N   UNL     1       8.126  -2.440  22.897  0.00  0.00    +0.000 N 
ATOM      4  C   UNL     1       8.976  -3.032  23.917  0.00  0.00    +0.000 C 
ATOM      5  C   UNL     1       8.279  -4.221  24.534  0.00  0.00    +0.000 C 
ATOM      6  C   UNL     1       7.908  -5.213  23.426  0.00  0.00    +0.000 C 
ATOM      7  C   UNL     1       7.010  -4.613  22.407  0.00  0.00    +0.000 C 
ATOM      8  C   UNL     1       6.877  -3.110  22.525  0.00  0.00    +0.000 C 
ENDROOT
BRANCH   7   9
ATOM      9  C   UNL     1       5.685  -5.260  22.220  0.00  0.00    +0.000 C 
ATOM     10  N   UNL     1       4.532  -4.374  22.527  0.00  0.00    +0.000 NA
ATOM     11  C   UNL     1       3.698  -4.930  23.534  0.00  0.00    +0.000 A 
ATOM     12  C   UNL     1       3.558  -3.894  24.321  0.00  0.00    +0.000 A 
ATOM     13  C   UNL     1       3.891  -3.428  25.759  0.00  0.00    +0.000 A 
ATOM     14  C   UNL     1       4.731  -4.567  26.057  0.00  0.00    +0.000 A 
ATOM     15  C   UNL     1       5.088  -5.907  25.709  0.00  0.00    +0.000 A 
ATOM     16  C   UNL     1       4.342  -6.012  24.335  0.00  0.00    +0.000 A 
ATOM     17  S   UNL     1       5.380  -6.635  23.255  0.00  0.00    +0.000 S 
ENDBRANCH   7   9
BRANCH   1  21
ATOM     18  C   UNL     1       8.584   2.621  22.024  0.00  0.00    +0.000 A 
ATOM     19  C   UNL     1       7.512   1.728  21.449  0.00  0.00    +0.000 A 
ATOM     20  C   UNL     1       7.605   0.310  21.211  0.00  0.00    +0.000 A 
ATOM     21  C   UNL     1       8.753  -0.338  22.039  0.00  0.00    +0.000 A 
ATOM     22  C   UNL     1       9.947   0.421  22.508  0.00  0.00    +0.000 A 
ATOM     23  C   UNL     1       9.820   1.957  22.423  0.00  0.00    +0.000 A 
ATOM     24  F   UNL     1      10.825   2.351  21.568  0.00  0.00    +0.000 F 
BRANCH  20  25
ATOM     25  C   UNL     1       7.694  -0.003  19.731  0.00  0.00    +0.000 C 
BRANCH  25  26
ATOM     26  S   UNL     1       6.071  -0.486  19.198  0.00  0.00    +0.000 S 
ATOM     27  O   UNL     1       6.135  -0.707  17.774  0.00  0.00    +0.000 OA
ATOM     28  O   UNL     1       5.652  -1.617  19.982  0.00  0.00    +0.000 OA
BRANCH  26  29
ATOM     29  N   UNL     1       5.000   0.741  19.477  0.00  0.00    +0.000 NA
ATOM     30  H   UNL     1       5.426   1.382  20.154  0.00  0.00    +0.000 HD
ATOM     31  H   UNL     1       4.198   0.368  19.978  0.00  0.00    +0.000 HD
ENDBRANCH  26  29
ENDBRANCH  25  26
ENDBRANCH  20  25
ENDBRANCH   1  21
TORSDOF 5
ENDMDL
MODEL 4
REMARK VINA RESULT:      -7.7      3.477      7.326
REMARK  Name = 
REMARK  5 active torsions:
REMARK  status: ('A' for Active; 'I' for Inactive)
REMARK    1  A    between atoms: C_5  and  C_6
REMARK    2  A    between atoms: C_6  and  S_9
REMARK    3  A    between atoms: S_9  and  N_12
REMARK    4  A    between atoms: C_15  and  C_16
REMARK    5  A    between atoms: C_28  and  C_30
REMARK                            x       y       z     vdW  Elec       q    Type
REMARK                         _______ _______ _______ _____ _____    ______ ____
ROOT
ATOM      1  C   UNL     1       6.806  -2.838  23.737  0.00  0.00    +0.000 C 
ATOM      2  O   UNL     1       6.119  -2.266  24.498  0.00  0.00    +0.000 OA
ATOM      3  N   UNL     1       7.560  -2.213  22.764  0.00  0.00    +0.000 N 
ATOM      4  C   UNL     1       6.811  -1.795  21.591  0.00  0.00    +0.000 C 
ATOM      5  C   UNL     1       7.097  -0.341  21.295  0.00  0.00    +0.000 C 
ATOM      6  C   UNL     1       8.609  -0.155  21.127  0.00  0.00    +0.000 C 
ATOM      7  C   UNL     1       9.365  -0.549  22.343  0.00  0.00    +0.000 C 
ATOM      8  C   UNL     1       8.531  -1.293  23.363  0.00  0.00    +0.000 C 
ENDROOT
BRANCH   7   9
ATOM      9  C   UNL     1      10.193   0.504  22.986  0.00  0.00    +0.000 C 
ATOM     10  N   UNL     1       9.769   0.845  24.369  0.00  0.00    +0.000 NA
ATOM     11  C   UNL     1       9.455   2.225  24.495  0.00  0.00    +0.000 A 
ATOM     12  C   UNL     1       8.307   2.149  25.116  0.00  0.00    +0.000 A 
ATOM     13  C   UNL     1       6.810   2.488  24.913  0.00  0.00    +0.000 A 
ATOM     14  C   UNL     1       6.956   2.818  23.513  0.00  0.00    +0.000 A 
ATOM     15  C   UNL     1       7.855   3.189  22.464  0.00  0.00    +0.000 A 
ATOM     16  C   UNL     1       9.214   2.921  23.197  0.00  0.00    +0.000 A 
ATOM     17  S   UNL     1      10.156   2.062  22.194  0.00  0.00    +0.000 S 
ENDBRANCH   7   9
BRANCH   1  21
ATOM     18  C   UNL     1       4.844  -6.016  22.666  0.00  0.00    +0.000 A 
ATOM     19  C   UNL     1       4.806  -5.375  24.032  0.00  0.00    +0.000 A 
ATOM     20  C   UNL     1       5.894  -4.719  24.709  0.00  0.00    +0.000 A 
ATOM     21  C   UNL     1       7.018  -4.297  23.718  0.00  0.00    +0.000 A 
ATOM     22  C   UNL     1       7.253  -4.982  22.415  0.00  0.00    +0.000 A 
ATOM     23  C   UNL     1       6.109  -5.907  21.947  0.00  0.00    +0.000 A 
ATOM     24  F   UNL     1       6.676  -7.159  21.865  0.00  0.00    +0.000 F 
BRANCH  20  25
ATOM     25  C   UNL     1       6.409  -5.546  25.871  0.00  0.00    +0.000 C 
BRANCH  25  26
ATOM     26  S   UNL     1       6.691  -4.433  27.224  0.00  0.00    +0.000 S 
ATOM     27  O   UNL     1       6.520  -5.187  28.442  0.00  0.00    +0.000 OA
ATOM     28  O   UNL     1       7.982  -3.823  27.050  0.00  0.00    +0.000 OA
BRANCH  26  29
ATOM     29  N   UNL     1       5.562  -3.228  27.206  0.00  0.00    +0.000 NA
ATOM     30  H   UNL     1       5.724  -2.633  28.026  0.00  0.00    +0.000 HD
ATOM     31  H   UNL     1       4.647  -3.633  27.387  0.00  0.00    +0.000 HD
ENDBRANCH  26  29
ENDBRANCH  25  26
ENDBRANCH  20  25
ENDBRANCH   1  21
TORSDOF 5
ENDMDL
MODEL 5
REMARK VINA RESULT:      -7.6      4.297      7.974
REMARK  Name = 
REMARK  5 active torsions:
REMARK  status: ('A' for Active; 'I' for Inactive)
REMARK    1  A    between atoms: C_5  and  C_6
REMARK    2  A    between atoms: C_6  and  S_9
REMARK    3  A    between atoms: S_9  and  N_12
REMARK    4  A    between atoms: C_15  and  C_16
REMARK    5  A    between atoms: C_28  and  C_30
REMARK                            x       y       z     vdW  Elec       q    Type
REMARK                         _______ _______ _______ _____ _____    ______ ____
ROOT
ATOM      1  C   UNL     1       7.169  -4.413  26.285  0.00  0.00    +0.000 C 
ATOM      2  O   UNL     1       7.877  -4.617  27.199  0.00  0.00    +0.000 OA
ATOM      3  N   UNL     1       7.099  -3.202  25.625  0.00  0.00    +0.000 N 
ATOM      4  C   UNL     1       6.318  -2.183  26.307  0.00  0.00    +0.000 C 
ATOM      5  C   UNL     1       7.125  -0.911  26.415  0.00  0.00    +0.000 C 
ATOM      6  C   UNL     1       7.564  -0.477  25.012  0.00  0.00    +0.000 C 
ATOM      7  C   UNL     1       8.393  -1.508  24.336  0.00  0.00    +0.000 C 
ATOM      8  C   UNL     1       8.396  -2.845  25.044  0.00  0.00    +0.000 C 
ENDROOT
BRANCH   7   9
ATOM      9  C   UNL     1       9.766  -1.104  23.936  0.00  0.00    +0.000 C 
ATOM     10  N   UNL     1      10.234   0.155  24.571  0.00  0.00    +0.000 NA
ATOM     11  C   UNL     1      10.594   1.128  23.601  0.00  0.00    +0.000 A 
ATOM     12  C   UNL     1       9.964   2.174  24.071  0.00  0.00    +0.000 A 
ATOM     13  C   UNL     1       8.829   3.157  23.697  0.00  0.00    +0.000 A 
ATOM     14  C   UNL     1       8.400   2.403  22.541  0.00  0.00    +0.000 A 
ATOM     15  C   UNL     1       8.744   1.409  21.572  0.00  0.00    +0.000 A 
ATOM     16  C   UNL     1      10.055   0.862  22.235  0.00  0.00    +0.000 A 
ATOM     17  S   UNL     1       9.970  -0.758  22.235  0.00  0.00    +0.000 S 
ENDBRANCH   7   9
BRANCH   1  21
ATOM     18  C   UNL     1       3.592  -4.529  24.774  0.00  0.00    +0.000 A 
ATOM     19  C   UNL     1       3.946  -4.777  26.220  0.00  0.00    +0.000 A 
ATOM     20  C   UNL     1       5.138  -5.412  26.720  0.00  0.00    +0.000 A 
ATOM     21  C   UNL     1       6.279  -5.410  25.661  0.00  0.00    +0.000 A 
ATOM     22  C   UNL     1       6.027  -5.344  24.194  0.00  0.00    +0.000 A 
ATOM     23  C   UNL     1       4.594  -4.935  23.794  0.00  0.00    +0.000 A 
ATOM     24  F   UNL     1       4.103  -6.006  23.082  0.00  0.00    +0.000 F 
BRANCH  20  25
ATOM     25  C   UNL     1       4.845  -6.793  27.272  0.00  0.00    +0.000 C 
BRANCH  25  26
ATOM     26  S   UNL     1       5.354  -6.798  28.972  0.00  0.00    +0.000 S 
ATOM     27  O   UNL     1       4.218  -7.213  29.758  0.00  0.00    +0.000 OA
ATOM     28  O   UNL     1       6.526  -7.623  29.094  0.00  0.00    +0.000 OA
BRANCH  26  29
ATOM     29  N   UNL     1       5.768  -5.269  29.440  0.00  0.00    +0.000 NA
ATOM     30  H   UNL     1       6.428  -4.897  28.748  0.00  0.00    +0.000 HD
ATOM     31  H   UNL     1       6.324  -5.325  30.289  0.00  0.00    +0.000 HD
ENDBRANCH  26  29
ENDBRANCH  25  26
ENDBRANCH  20  25
ENDBRANCH   1  21
TORSDOF 5
ENDMDL
MODEL 6
REMARK VINA RESULT:      -7.5      3.639      6.932
REMARK  Name = 
REMARK  5 active torsions:
REMARK  status: ('A' for Active; 'I' for Inactive)
REMARK    1  A    between atoms: C_5  and  C_6
REMARK    2  A    between atoms: C_6  and  S_9
REMARK    3  A    between atoms: S_9  and  N_12
REMARK    4  A    between atoms: C_15  and  C_16
REMARK    5  A    between atoms: C_28  and  C_30
REMARK                            x       y       z     vdW  Elec       q    Type
REMARK                         _______ _______ _______ _____ _____    ______ ____
ROOT
ATOM      1  C   UNL     1       6.163  -2.462  24.566  0.00  0.00    +0.000 C 
ATOM      2  O   UNL     1       5.892  -2.447  23.423  0.00  0.00    +0.000 OA
ATOM      3  N   UNL     1       7.239  -1.788  25.108  0.00  0.00    +0.000 N 
ATOM      4  C   UNL     1       8.524  -2.441  24.916  0.00  0.00    +0.000 C 
ATOM      5  C   UNL     1       9.513  -1.458  24.335  0.00  0.00    +0.000 C 
ATOM      6  C   UNL     1       9.604  -0.238  25.258  0.00  0.00    +0.000 C 
ATOM      7  C   UNL     1       8.295   0.446  25.420  0.00  0.00    +0.000 C 
ATOM      8  C   UNL     1       7.125  -0.346  24.879  0.00  0.00    +0.000 C 
ENDROOT
BRANCH   7   9
ATOM      9  C   UNL     1       8.228   1.869  24.997  0.00  0.00    +0.000 C 
ATOM     10  N   UNL     1       7.163   2.153  24.000  0.00  0.00    +0.000 NA
ATOM     11  C   UNL     1       7.695   2.720  22.812  0.00  0.00    +0.000 A 
ATOM     12  C   UNL     1       7.102   1.981  21.911  0.00  0.00    +0.000 A 
ATOM     13  C   UNL     1       7.427   0.954  20.800  0.00  0.00    +0.000 A 
ATOM     14  C   UNL     1       8.820   0.826  21.166  0.00  0.00    +0.000 A 
ATOM     15  C   UNL     1       9.928   1.408  21.859  0.00  0.00    +0.000 A 
ATOM     16  C   UNL     1       9.165   2.529  22.645  0.00  0.00    +0.000 A 
ATOM     17  S   UNL     1       9.657   2.470  24.191  0.00  0.00    +0.000 S 
ENDBRANCH   7   9
BRANCH   1  21
ATOM     18  C   UNL     1       6.559  -5.574  26.858  0.00  0.00    +0.000 A 
ATOM     19  C   UNL     1       5.945  -5.567  25.479  0.00  0.00    +0.000 A 
ATOM     20  C   UNL     1       5.161  -4.513  24.888  0.00  0.00    +0.000 A 
ATOM     21  C   UNL     1       5.387  -3.153  25.612  0.00  0.00    +0.000 A 
ATOM     22  C   UNL     1       5.827  -3.051  27.032  0.00  0.00    +0.000 A 
ATOM     23  C   UNL     1       6.376  -4.358  27.643  0.00  0.00    +0.000 A 
ATOM     24  F   UNL     1       5.535  -4.640  28.697  0.00  0.00    +0.000 F 
BRANCH  20  25
ATOM     25  C   UNL     1       3.697  -4.894  24.788  0.00  0.00    +0.000 C 
BRANCH  25  26
ATOM     26  S   UNL     1       3.507  -5.862  23.313  0.00  0.00    +0.000 S 
ATOM     27  O   UNL     1       2.179  -5.613  22.805  0.00  0.00    +0.000 OA
ATOM     28  O   UNL     1       4.583  -5.540  22.414  0.00  0.00    +0.000 OA
BRANCH  26  29
ATOM     29  N   UNL     1       3.622  -7.469  23.676  0.00  0.00    +0.000 NA
ATOM     30  H   UNL     1       2.887  -7.691  24.355  0.00  0.00    +0.000 HD
ATOM     31  H   UNL     1       4.480  -7.627  24.197  0.00  0.00    +0.000 HD
ENDBRANCH  26  29
ENDBRANCH  25  26
ENDBRANCH  20  25
ENDBRANCH   1  21
TORSDOF 5
ENDMDL
MODEL 7
REMARK VINA RESULT:      -7.2      3.376      6.674
REMARK  Name = 
REMARK  5 active torsions:
REMARK  status: ('A' for Active; 'I' for Inactive)
REMARK    1  A    between atoms: C_5  and  C_6
REMARK    2  A    between atoms: C_6  and  S_9
REMARK    3  A    between atoms: S_9  and  N_12
REMARK    4  A    between atoms: C_15  and  C_16
REMARK    5  A    between atoms: C_28  and  C_30
REMARK                            x       y       z     vdW  Elec       q    Type
REMARK                         _______ _______ _______ _____ _____    ______ ____
ROOT
ATOM      1  C   UNL     1       6.951  -2.150  24.150  0.00  0.00    +0.000 C 
ATOM      2  O   UNL     1       6.011  -1.680  23.626  0.00  0.00    +0.000 OA
ATOM      3  N   UNL     1       8.235  -1.666  24.000  0.00  0.00    +0.000 N 
ATOM      4  C   UNL     1       8.886  -2.044  22.756  0.00  0.00    +0.000 C 
ATOM      5  C   UNL     1       9.443  -0.815  22.079  0.00  0.00    +0.000 C 
ATOM      6  C   UNL     1      10.391  -0.098  23.046  0.00  0.00    +0.000 C 
ATOM      7  C   UNL     1       9.710   0.319  24.299  0.00  0.00    +0.000 C 
ATOM      8  C   UNL     1       8.332  -0.282  24.470  0.00  0.00    +0.000 C 
ENDROOT
BRANCH   7   9
ATOM      9  C   UNL     1       9.709   1.773  24.608  0.00  0.00    +0.000 C 
ATOM     10  N   UNL     1       8.452   2.255  25.236  0.00  0.00    +0.000 NA
ATOM     11  C   UNL     1       7.852   3.294  24.475  0.00  0.00    +0.000 A 
ATOM     12  C   UNL     1       6.616   2.868  24.430  0.00  0.00    +0.000 A 
ATOM     13  C   UNL     1       5.550   2.386  23.417  0.00  0.00    +0.000 A 
ATOM     14  C   UNL     1       6.470   2.327  22.303  0.00  0.00    +0.000 A 
ATOM     15  C   UNL     1       7.727   2.756  21.771  0.00  0.00    +0.000 A 
ATOM     16  C   UNL     1       8.341   3.385  23.068  0.00  0.00    +0.000 A 
ATOM     17  S   UNL     1       9.856   2.824  23.219  0.00  0.00    +0.000 S 
ENDBRANCH   7   9
BRANCH   1  21
ATOM     18  C   UNL     1       9.177  -5.212  25.022  0.00  0.00    +0.000 A 
ATOM     19  C   UNL     1       8.088  -5.184  23.978  0.00  0.00    +0.000 A 
ATOM     20  C   UNL     1       6.849  -4.451  24.042  0.00  0.00    +0.000 A 
ATOM     21  C   UNL     1       6.919  -3.293  25.081  0.00  0.00    +0.000 A 
ATOM     22  C   UNL     1       7.842  -3.305  26.251  0.00  0.00    +0.000 A 
ATOM     23  C   UNL     1       8.963  -4.364  26.189  0.00  0.00    +0.000 A 
ATOM     24  F   UNL     1       8.753  -5.170  27.285  0.00  0.00    +0.000 F 
BRANCH  20  25
ATOM     25  C   UNL     1       5.666  -5.372  24.260  0.00  0.00    +0.000 C 
BRANCH  25  26
ATOM     26  S   UNL     1       4.807  -5.499  22.713  0.00  0.00    +0.000 S 
ATOM     27  O   UNL     1       3.531  -6.118  22.979  0.00  0.00    +0.000 OA
ATOM     28  O   UNL     1       4.748  -4.192  22.115  0.00  0.00    +0.000 OA
BRANCH  26  29
ATOM     29  N   UNL     1       5.645  -6.482  21.683  0.00  0.00    +0.000 NA
ATOM     30  H   UNL     1       5.805  -7.375  22.163  0.00  0.00    +0.000 HD
ATOM     31  H   UNL     1       6.583  -6.109  21.564  0.00  0.00    +0.000 HD
ENDBRANCH  26  29
ENDBRANCH  25  26
ENDBRANCH  20  25
ENDBRANCH   1  21
TORSDOF 5
ENDMDL
MODEL 8
REMARK VINA RESULT:      -7.2      3.724      7.072
REMARK  Name = 
REMARK  5 active torsions:
REMARK  status: ('A' for Active; 'I' for Inactive)
REMARK    1  A    between atoms: C_5  and  C_6
REMARK    2  A    between atoms: C_6  and  S_9
REMARK    3  A    between atoms: S_9  and  N_12
REMARK    4  A    between atoms: C_15  and  C_16
REMARK    5  A    between atoms: C_28  and  C_30
REMARK                            x       y       z     vdW  Elec       q    Type
REMARK                         _______ _______ _______ _____ _____    ______ ____
ROOT
ATOM      1  C   UNL     1       8.662  -4.050  24.636  0.00  0.00    +0.000 C 
ATOM      2  O   UNL     1       9.774  -4.389  24.799  0.00  0.00    +0.000 OA
ATOM      3  N   UNL     1       8.183  -2.800  24.976  0.00  0.00    +0.000 N 
ATOM      4  C   UNL     1       7.907  -2.620  26.391  0.00  0.00    +0.000 C 
ATOM      5  C   UNL     1       8.585  -1.364  26.886  0.00  0.00    +0.000 C 
ATOM      6  C   UNL     1       8.119  -0.176  26.038  0.00  0.00    +0.000 C 
ATOM      7  C   UNL     1       8.438  -0.351  24.598  0.00  0.00    +0.000 C 
ATOM      8  C   UNL     1       8.894  -1.750  24.242  0.00  0.00    +0.000 C 
ENDROOT
BRANCH   7   9
ATOM      9  C   UNL     1       9.314   0.677  23.978  0.00  0.00    +0.000 C 
ATOM     10  N   UNL     1       8.604   1.929  23.606  0.00  0.00    +0.000 NA
ATOM     11  C   UNL     1       8.742   2.217  22.222  0.00  0.00    +0.000 A 
ATOM     12  C   UNL     1       7.498   2.473  21.910  0.00  0.00    +0.000 A 
ATOM     13  C   UNL     1       6.349   1.934  21.025  0.00  0.00    +0.000 A 
ATOM     14  C   UNL     1       7.039   0.715  20.671  0.00  0.00    +0.000 A 
ATOM     15  C   UNL     1       8.298   0.039  20.585  0.00  0.00    +0.000 A 
ATOM     16  C   UNL     1       9.177   1.055  21.393  0.00  0.00    +0.000 A 
ATOM     17  S   UNL     1      10.052   0.208  22.465  0.00  0.00    +0.000 S 
ENDBRANCH   7   9
BRANCH   1  21
ATOM     18  C   UNL     1       5.179  -3.499  23.006  0.00  0.00    +0.000 A 
ATOM     19  C   UNL     1       5.434  -3.767  24.469  0.00  0.00    +0.000 A 
ATOM     20  C   UNL     1       6.460  -4.610  25.026  0.00  0.00    +0.000 A 
ATOM     21  C   UNL     1       7.609  -4.869  24.007  0.00  0.00    +0.000 A 
ATOM     22  C   UNL     1       7.417  -4.801  22.531  0.00  0.00    +0.000 A 
ATOM     23  C   UNL     1       6.107  -4.127  22.072  0.00  0.00    +0.000 A 
ATOM     24  F   UNL     1       5.432  -5.102  21.371  0.00  0.00    +0.000 F 
BRANCH  20  25
ATOM     25  C   UNL     1       5.881  -5.887  25.602  0.00  0.00    +0.000 C 
BRANCH  25  26
ATOM     26  S   UNL     1       6.090  -5.812  27.363  0.00  0.00    +0.000 S 
ATOM     27  O   UNL     1       7.509  -5.800  27.626  0.00  0.00    +0.000 OA
ATOM     28  O   UNL     1       5.360  -4.677  27.861  0.00  0.00    +0.000 OA
BRANCH  26  29
ATOM     29  N   UNL     1       5.452  -7.165  28.064  0.00  0.00    +0.000 NA
ATOM     30  H   UNL     1       5.055  -7.747  27.318  0.00  0.00    +0.000 HD
ATOM     31  H   UNL     1       4.639  -6.898  28.612  0.00  0.00    +0.000 HD
ENDBRANCH  26  29
ENDBRANCH  25  26
ENDBRANCH  20  25
ENDBRANCH   1  21
TORSDOF 5
ENDMDL
MODEL 9
REMARK VINA RESULT:      -7.1      3.310      4.275
REMARK  Name = 
REMARK  5 active torsions:
REMARK  status: ('A' for Active; 'I' for Inactive)
REMARK    1  A    between atoms: C_5  and  C_6
REMARK    2  A    between atoms: C_6  and  S_9
REMARK    3  A    between atoms: S_9  and  N_12
REMARK    4  A    between atoms: C_15  and  C_16
REMARK    5  A    between atoms: C_28  and  C_30
REMARK                            x       y       z     vdW  Elec       q    Type
REMARK                         _______ _______ _______ _____ _____    ______ ____
ROOT
ATOM      1  C   UNL     1       8.336  -0.483  24.294  0.00  0.00    +0.000 C 
ATOM      2  O   UNL     1       8.951   0.051  25.140  0.00  0.00    +0.000 OA
ATOM      3  N   UNL     1       8.184  -1.852  24.204  0.00  0.00    +0.000 N 
ATOM      4  C   UNL     1       9.330  -2.557  23.654  0.00  0.00    +0.000 C 
ATOM      5  C   UNL     1       9.718  -3.691  24.572  0.00  0.00    +0.000 C 
ATOM      6  C   UNL     1       8.506  -4.606  24.776  0.00  0.00    +0.000 C 
ATOM      7  C   UNL     1       7.350  -3.888  25.373  0.00  0.00    +0.000 C 
ATOM      8  C   UNL     1       7.516  -2.384  25.395  0.00  0.00    +0.000 C 
ENDROOT
BRANCH   7   9
ATOM      9  C   UNL     1       6.848  -4.397  26.676  0.00  0.00    +0.000 C 
ATOM     10  N   UNL     1       6.543  -5.851  26.679  0.00  0.00    +0.000 NA
ATOM     11  C   UNL     1       5.192  -6.102  27.039  0.00  0.00    +0.000 A 
ATOM     12  C   UNL     1       4.849  -6.939  26.095  0.00  0.00    +0.000 A 
ATOM     13  C   UNL     1       3.878  -7.061  24.897  0.00  0.00    +0.000 A 
ATOM     14  C   UNL     1       3.461  -5.678  24.945  0.00  0.00    +0.000 A 
ATOM     15  C   UNL     1       3.377  -4.485  25.731  0.00  0.00    +0.000 A 
ATOM     16  C   UNL     1       4.296  -4.914  26.926  0.00  0.00    +0.000 A 
ATOM     17  S   UNL     1       5.336  -3.701  27.210  0.00  0.00    +0.000 S 
ENDBRANCH   7   9
BRANCH   1  21
ATOM     18  C   UNL     1       8.443  -0.243  20.418  0.00  0.00    +0.000 A 
ATOM     19  C   UNL     1       9.193   0.649  21.377  0.00  0.00    +0.000 A 
ATOM     20  C   UNL     1       8.742   1.100  22.668  0.00  0.00    +0.000 A 
ATOM     21  C   UNL     1       7.594   0.206  23.222  0.00  0.00    +0.000 A 
ATOM     22  C   UNL     1       6.682  -0.582  22.345  0.00  0.00    +0.000 A 
ATOM     23  C   UNL     1       7.150  -0.733  20.882  0.00  0.00    +0.000 A 
ATOM     24  F   UNL     1       6.161  -0.143  20.129  0.00  0.00    +0.000 F 
BRANCH  20  25
ATOM     25  C   UNL     1       8.389   2.574  22.653  0.00  0.00    +0.000 C 
BRANCH  25  26
ATOM     26  S   UNL     1       9.445   3.380  23.830  0.00  0.00    +0.000 S 
ATOM     27  O   UNL     1       8.717   3.464  25.072  0.00  0.00    +0.000 OA
ATOM     28  O   UNL     1      10.691   2.663  23.890  0.00  0.00    +0.000 OA
BRANCH  26  29
ATOM     29  N   UNL     1       9.778   4.918  23.327  0.00  0.00    +0.000 NA
ATOM     30  H   UNL     1       9.460   5.006  22.355  0.00  0.00    +0.000 HD
ATOM     31  H   UNL     1      10.785   5.029  23.256  0.00  0.00    +0.000 HD
ENDBRANCH  26  29
ENDBRANCH  25  26
ENDBRANCH  20  25
ENDBRANCH   1  21
TORSDOF 5
ENDMDL
