MODEL 1
REMARK VINA RESULT:      -8.8      0.000      0.000
REMARK  Name = 
REMARK  4 active torsions:
REMARK  status: ('A' for Active; 'I' for Inactive)
REMARK    1  A    between atoms: C_17  and  C_18
REMARK    2  A    between atoms: C_18  and  N_21
REMARK    3  A    between atoms: C_29  and  C_31
REMARK    4  A    between atoms: C_31  and  C_34
REMARK                            x       y       z     vdW  Elec       q    Type
REMARK                         _______ _______ _______ _____ _____    ______ ____
ROOT
ATOM      1  N   UNL     1       8.351  -0.784  24.784  0.00  0.00    +0.000 NA
ATOM      2  C   UNL     1       8.932  -0.715  26.045  0.00  0.00    +0.000 C 
ATOM      3  C   UNL     1       8.784  -2.067  26.793  0.00  0.00    +0.000 C 
ATOM      4  N   UNL     1       8.424  -3.068  25.741  0.00  0.00    +0.000 N 
ATOM      5  C   UNL     1       7.829  -4.199  26.203  0.00  0.00    +0.000 C 
ATOM      6  O   UNL     1       8.481  -4.744  27.155  0.00  0.00    +0.000 OA
ATOM      7  C   UNL     1       9.280  -2.992  24.584  0.00  0.00    +0.000 C 
ATOM      8  C   UNL     1       9.072  -1.595  23.932  0.00  0.00    +0.000 C 
ENDROOT
BRANCH   1   9
ATOM      9  C   UNL     1       7.551   0.230  24.336  0.00  0.00    +0.000 C 
BRANCH   9  18
ATOM     10  C   UNL     1      10.437   2.281  23.339  0.00  0.00    +0.000 C 
ATOM     11  C   UNL     1      10.202   1.961  21.974  0.00  0.00    +0.000 C 
ATOM     12  C   UNL     1       8.925   1.317  21.448  0.00  0.00    +0.000 C 
ATOM     13  C   UNL     1       8.921   0.106  21.022  0.00  0.00    +0.000 C 
ATOM     14  C   UNL     1       7.843   0.138  19.762  0.00  0.00    +0.000 C 
ATOM     15  C   UNL     1       6.747   0.711  20.561  0.00  0.00    +0.000 C 
ATOM     16  C   UNL     1       6.708   1.510  21.819  0.00  0.00    +0.000 C 
ATOM     17  C   UNL     1       7.791   1.986  22.497  0.00  0.00    +0.000 C 
ATOM     18  C   UNL     1       8.218   1.554  23.853  0.00  0.00    +0.000 C 
ATOM     19  C   UNL     1       9.333   2.165  24.507  0.00  0.00    +0.000 C 
ENDBRANCH   9  18
ENDBRANCH   1   9
BRANCH   5  20
ATOM     20  C   UNL     1       6.956  -4.997  25.382  0.00  0.00    +0.000 C 
BRANCH  20  21
ATOM     21  C   UNL     1       5.638  -4.456  24.834  0.00  0.00    +0.000 A 
ATOM     22  C   UNL     1       4.680  -5.245  25.443  0.00  0.00    +0.000 A 
ATOM     23  C   UNL     1       3.935  -6.593  25.106  0.00  0.00    +0.000 A 
ATOM     24  C   UNL     1       4.140  -6.489  23.556  0.00  0.00    +0.000 A 
ATOM     25  C   UNL     1       4.447  -5.690  22.659  0.00  0.00    +0.000 A 
ATOM     26  C   UNL     1       5.823  -5.984  22.317  0.00  0.00    +0.000 A 
ATOM     27  C   UNL     1       6.960  -5.546  21.670  0.00  0.00    +0.000 A 
ATOM     28  C   UNL     1       6.710  -4.040  22.052  0.00  0.00    +0.000 A 
ATOM     29  C   UNL     1       5.560  -3.561  22.680  0.00  0.00    +0.000 A 
ATOM     30  C   UNL     1       4.894  -4.308  23.566  0.00  0.00    +0.000 A 
ENDBRANCH  20  21
ENDBRANCH   5  20
TORSDOF 4
ENDMDL
MODEL 2
REMARK VINA RESULT:      -8.5      0.846      2.212
REMARK  Name = 
REMARK  4 active torsions:
REMARK  status: ('A' for Active; 'I' for Inactive)
REMARK    1  A    between atoms: C_17  and  C_18
REMARK    2  A    between atoms: C_18  and  N_21
REMARK    3  A    between atoms: C_29  and  C_31
REMARK    4  A    between atoms: C_31  and  C_34
REMARK                            x       y       z     vdW  Elec       q    Type
REMARK                         _______ _______ _______ _____ _____    ______ ____
ROOT
ATOM      1  N   UNL     1       8.303  -1.182  24.668  0.00  0.00    +0.000 NA
ATOM      2  C   UNL     1       8.337  -1.524  26.014  0.00  0.00    +0.000 C 
ATOM      3  C   UNL     1       8.242  -3.063  26.191  0.00  0.00    +0.000 C 
ATOM      4  N   UNL     1       8.548  -3.640  24.845  0.00  0.00    +0.000 N 
ATOM      5  C   UNL     1       8.107  -4.911  24.651  0.00  0.00    +0.000 C 
ATOM      6  O   UNL     1       8.466  -5.704  25.584  0.00  0.00    +0.000 OA
ATOM      7  C   UNL     1       9.731  -3.069  24.251  0.00  0.00    +0.000 C 
ATOM      8  C   UNL     1       9.458  -1.556  24.014  0.00  0.00    +0.000 C 
ENDROOT
BRANCH   1   9
ATOM      9  C   UNL     1       7.514  -0.151  24.237  0.00  0.00    +0.000 C 
BRANCH   9  18
ATOM     10  C   UNL     1      10.413   1.964  23.428  0.00  0.00    +0.000 C 
ATOM     11  C   UNL     1      10.186   1.755  22.039  0.00  0.00    +0.000 C 
ATOM     12  C   UNL     1       8.911   1.159  21.455  0.00  0.00    +0.000 C 
ATOM     13  C   UNL     1       8.907  -0.014  20.933  0.00  0.00    +0.000 C 
ATOM     14  C   UNL     1       7.837   0.123  19.673  0.00  0.00    +0.000 C 
ATOM     15  C   UNL     1       6.738   0.634  20.508  0.00  0.00    +0.000 C 
ATOM     16  C   UNL     1       6.692   1.330  21.825  0.00  0.00    +0.000 C 
ATOM     17  C   UNL     1       7.772   1.746  22.547  0.00  0.00    +0.000 C 
ATOM     18  C   UNL     1       8.188   1.205  23.866  0.00  0.00    +0.000 C 
ATOM     19  C   UNL     1       9.300   1.758  24.574  0.00  0.00    +0.000 C 
ENDBRANCH   9  18
ENDBRANCH   1   9
BRANCH   5  20
ATOM     20  C   UNL     1       7.819  -5.430  23.339  0.00  0.00    +0.000 C 
BRANCH  20  21
ATOM     21  C   UNL     1       6.431  -5.321  22.710  0.00  0.00    +0.000 A 
ATOM     22  C   UNL     1       6.453  -4.091  22.079  0.00  0.00    +0.000 A 
ATOM     23  C   UNL     1       6.080  -2.608  22.466  0.00  0.00    +0.000 A 
ATOM     24  C   UNL     1       5.075  -3.003  23.602  0.00  0.00    +0.000 A 
ATOM     25  C   UNL     1       4.423  -3.960  24.046  0.00  0.00    +0.000 A 
ATOM     26  C   UNL     1       5.146  -4.428  25.210  0.00  0.00    +0.000 A 
ATOM     27  C   UNL     1       5.304  -5.449  26.125  0.00  0.00    +0.000 A 
ATOM     28  C   UNL     1       5.025  -6.572  25.058  0.00  0.00    +0.000 A 
ATOM     29  C   UNL     1       4.605  -6.336  23.749  0.00  0.00    +0.000 A 
ATOM     30  C   UNL     1       5.004  -5.250  23.080  0.00  0.00    +0.000 A 
ENDBRANCH  20  21
ENDBRANCH   5  20
TORSDOF 4
ENDMDL
MODEL 3
REMARK VINA RESULT:      -8.4      1.404      2.809
REMARK  Name = 
REMARK  4 active torsions:
REMARK  status: ('A' for Active; 'I' for Inactive)
REMARK    1  A    between atoms: C_17  and  C_18
REMARK    2  A    between atoms: C_18  and  N_21
REMARK    3  A    between atoms: C_29  and  C_31
REMARK    4  A    between atoms: C_31  and  C_34
REMARK                            x       y       z     vdW  Elec       q    Type
REMARK                         _______ _______ _______ _____ _____    ______ ____
ROOT
ATOM      1  N   UNL     1       7.995  -2.565  24.150  0.00  0.00    +0.000 NA
ATOM      2  C   UNL     1       8.694  -2.290  25.319  0.00  0.00    +0.000 C 
ATOM      3  C   UNL     1       8.322  -3.304  26.433  0.00  0.00    +0.000 C 
ATOM      4  N   UNL     1       7.650  -4.441  25.730  0.00  0.00    +0.000 N 
ATOM      5  C   UNL     1       6.867  -5.223  26.519  0.00  0.00    +0.000 C 
ATOM      6  O   UNL     1       7.470  -5.622  27.571  0.00  0.00    +0.000 OA
ATOM      7  C   UNL     1       8.388  -4.897  24.579  0.00  0.00    +0.000 C 
ATOM      8  C   UNL     1       8.433  -3.729  23.553  0.00  0.00    +0.000 C 
ENDROOT
BRANCH   1   9
ATOM      9  C   UNL     1       7.400  -1.555  23.446  0.00  0.00    +0.000 C 
BRANCH   9  18
ATOM     10  C   UNL     1       6.298  -0.614  20.065  0.00  0.00    +0.000 C 
ATOM     11  C   UNL     1       7.165   0.513  20.089  0.00  0.00    +0.000 C 
ATOM     12  C   UNL     1       8.274   0.725  21.112  0.00  0.00    +0.000 C 
ATOM     13  C   UNL     1       8.181   1.639  22.009  0.00  0.00    +0.000 C 
ATOM     14  C   UNL     1       9.740   2.178  22.181  0.00  0.00    +0.000 C 
ATOM     15  C   UNL     1      10.296   0.842  22.451  0.00  0.00    +0.000 C 
ATOM     16  C   UNL     1       9.836  -0.540  22.136  0.00  0.00    +0.000 C 
ATOM     17  C   UNL     1       8.745  -0.868  21.386  0.00  0.00    +0.000 C 
ATOM     18  C   UNL     1       7.525  -1.549  21.892  0.00  0.00    +0.000 C 
ATOM     19  C   UNL     1       6.460  -1.910  21.009  0.00  0.00    +0.000 C 
ENDBRANCH   9  18
ENDBRANCH   1   9
BRANCH   5  20
ATOM     20  C   UNL     1       5.765  -5.984  25.992  0.00  0.00    +0.000 C 
BRANCH  20  21
ATOM     21  C   UNL     1       4.335  -5.445  25.984  0.00  0.00    +0.000 A 
ATOM     22  C   UNL     1       3.572  -6.533  26.368  0.00  0.00    +0.000 A 
ATOM     23  C   UNL     1       2.827  -7.713  25.635  0.00  0.00    +0.000 A 
ATOM     24  C   UNL     1       2.672  -6.961  24.268  0.00  0.00    +0.000 A 
ATOM     25  C   UNL     1       2.735  -5.834  23.757  0.00  0.00    +0.000 A 
ATOM     26  C   UNL     1       4.009  -5.779  23.071  0.00  0.00    +0.000 A 
ATOM     27  C   UNL     1       4.953  -4.970  22.471  0.00  0.00    +0.000 A 
ATOM     28  C   UNL     1       4.734  -3.797  23.497  0.00  0.00    +0.000 A 
ATOM     29  C   UNL     1       3.737  -3.771  24.472  0.00  0.00    +0.000 A 
ATOM     30  C   UNL     1       3.320  -4.894  25.065  0.00  0.00    +0.000 A 
ENDBRANCH  20  21
ENDBRANCH   5  20
TORSDOF 4
ENDMDL
MODEL 4
REMARK VINA RESULT:      -8.3      1.656      6.700
REMARK  Name = 
REMARK  4 active torsions:
REMARK  status: ('A' for Active; 'I' for Inactive)
REMARK    1  A    between atoms: C_17  and  C_18
REMARK    2  A    between atoms: C_18  and  N_21
REMARK    3  A    between atoms: C_29  and  C_31
REMARK    4  A    between atoms: C_31  and  C_34
REMARK                            x       y       z     vdW  Elec       q    Type
REMARK                         _______ _______ _______ _____ _____    ______ ____
ROOT
ATOM      1  N   UNL     1       6.898  -2.495  25.875  0.00  0.00    +0.000 NA
ATOM      2  C   UNL     1       8.139  -2.973  26.276  0.00  0.00    +0.000 C 
ATOM      3  C   UNL     1       9.258  -1.954  25.930  0.00  0.00    +0.000 C 
ATOM      4  N   UNL     1       8.552  -0.665  25.651  0.00  0.00    +0.000 N 
ATOM      5  C   UNL     1       9.263   0.233  24.919  0.00  0.00    +0.000 C 
ATOM      6  O   UNL     1      10.430   0.439  25.391  0.00  0.00    +0.000 OA
ATOM      7  C   UNL     1       7.583  -0.331  26.665  0.00  0.00    +0.000 C 
ATOM      8  C   UNL     1       6.483  -1.431  26.649  0.00  0.00    +0.000 C 
ENDROOT
BRANCH   1   9
ATOM      9  C   UNL     1       6.021  -3.314  25.219  0.00  0.00    +0.000 C 
BRANCH   9  18
ATOM     10  C   UNL     1       4.362  -6.537  25.843  0.00  0.00    +0.000 C 
ATOM     11  C   UNL     1       4.530  -6.896  24.477  0.00  0.00    +0.000 C 
ATOM     12  C   UNL     1       5.442  -6.164  23.501  0.00  0.00    +0.000 C 
ATOM     13  C   UNL     1       4.958  -5.457  22.545  0.00  0.00    +0.000 C 
ATOM     14  C   UNL     1       6.030  -5.694  21.301  0.00  0.00    +0.000 C 
ATOM     15  C   UNL     1       7.208  -5.286  22.084  0.00  0.00    +0.000 C 
ATOM     16  C   UNL     1       7.499  -5.237  23.545  0.00  0.00    +0.000 C 
ATOM     17  C   UNL     1       6.679  -5.686  24.539  0.00  0.00    +0.000 C 
ATOM     18  C   UNL     1       6.018  -4.835  25.561  0.00  0.00    +0.000 C 
ATOM     19  C   UNL     1       5.229  -5.412  26.604  0.00  0.00    +0.000 C 
ENDBRANCH   9  18
ENDBRANCH   1   9
BRANCH   5  20
ATOM     20  C   UNL     1       8.625   1.244  24.116  0.00  0.00    +0.000 C 
BRANCH  20  21
ATOM     21  C   UNL     1       8.991   1.466  22.650  0.00  0.00    +0.000 A 
ATOM     22  C   UNL     1       8.270   2.592  22.299  0.00  0.00    +0.000 A 
ATOM     23  C   UNL     1       6.845   2.886  21.691  0.00  0.00    +0.000 A 
ATOM     24  C   UNL     1       6.687   1.485  21.006  0.00  0.00    +0.000 A 
ATOM     25  C   UNL     1       7.333   0.485  20.660  0.00  0.00    +0.000 A 
ATOM     26  C   UNL     1       7.058  -0.529  21.656  0.00  0.00    +0.000 A 
ATOM     27  C   UNL     1       7.437  -1.747  22.185  0.00  0.00    +0.000 A 
ATOM     28  C   UNL     1       8.971  -1.466  21.971  0.00  0.00    +0.000 A 
ATOM     29  C   UNL     1       9.489  -0.365  21.291  0.00  0.00    +0.000 A 
ATOM     30  C   UNL     1       8.874   0.822  21.326  0.00  0.00    +0.000 A 
ENDBRANCH  20  21
ENDBRANCH   5  20
TORSDOF 4
ENDMDL
MODEL 5
REMARK VINA RESULT:      -8.3      1.744      3.069
REMARK  Name = 
REMARK  4 active torsions:
REMARK  status: ('A' for Active; 'I' for Inactive)
REMARK    1  A    between atoms: C_17  and  C_18
REMARK    2  A    between atoms: C_18  and  N_21
REMARK    3  A    between atoms: C_29  and  C_31
REMARK    4  A    between atoms: C_31  and  C_34
REMARK                            x       y       z     vdW  Elec       q    Type
REMARK                         _______ _______ _______ _____ _____    ______ ____
ROOT
ATOM      1  N   UNL     1       8.786   0.254  25.338  0.00  0.00    +0.000 NA
ATOM      2  C   UNL     1       7.788   1.019  25.930  0.00  0.00    +0.000 C 
ATOM      3  C   UNL     1       6.399   0.353  25.739  0.00  0.00    +0.000 C 
ATOM      4  N   UNL     1       6.686  -1.060  25.335  0.00  0.00    +0.000 N 
ATOM      5  C   UNL     1       5.664  -1.696  24.704  0.00  0.00    +0.000 C 
ATOM      6  O   UNL     1       4.563  -1.613  25.343  0.00  0.00    +0.000 OA
ATOM      7  C   UNL     1       7.662  -1.694  26.186  0.00  0.00    +0.000 C 
ATOM      8  C   UNL     1       9.003  -0.924  26.023  0.00  0.00    +0.000 C 
ENDROOT
BRANCH   1   9
ATOM      9  C   UNL     1       9.750   0.849  24.572  0.00  0.00    +0.000 C 
BRANCH   9  18
ATOM     10  C   UNL     1       9.344  -1.633  21.887  0.00  0.00    +0.000 C 
ATOM     11  C   UNL     1       8.316  -0.843  21.303  0.00  0.00    +0.000 C 
ATOM     12  C   UNL     1       8.023   0.604  21.678  0.00  0.00    +0.000 C 
ATOM     13  C   UNL     1       6.957   0.919  22.320  0.00  0.00    +0.000 C 
ATOM     14  C   UNL     1       6.541   2.395  21.686  0.00  0.00    +0.000 C 
ATOM     15  C   UNL     1       7.850   3.011  21.955  0.00  0.00    +0.000 C 
ATOM     16  C   UNL     1       9.219   2.456  22.159  0.00  0.00    +0.000 C 
ATOM     17  C   UNL     1       9.576   1.145  22.041  0.00  0.00    +0.000 C 
ATOM     18  C   UNL     1      10.039   0.274  23.151  0.00  0.00    +0.000 C 
ATOM     19  C   UNL     1      10.455  -1.072  22.910  0.00  0.00    +0.000 C 
ENDBRANCH   9  18
ENDBRANCH   1   9
BRANCH   5  20
ATOM     20  C   UNL     1       5.887  -2.792  23.797  0.00  0.00    +0.000 C 
BRANCH  20  21
ATOM     21  C   UNL     1       6.345  -4.166  24.283  0.00  0.00    +0.000 A 
ATOM     22  C   UNL     1       7.289  -4.548  23.348  0.00  0.00    +0.000 A 
ATOM     23  C   UNL     1       7.284  -5.346  21.988  0.00  0.00    +0.000 A 
ATOM     24  C   UNL     1       5.967  -6.141  22.290  0.00  0.00    +0.000 A 
ATOM     25  C   UNL     1       5.199  -6.449  23.213  0.00  0.00    +0.000 A 
ATOM     26  C   UNL     1       4.050  -5.578  23.081  0.00  0.00    +0.000 A 
ATOM     27  C   UNL     1       2.915  -5.080  23.689  0.00  0.00    +0.000 A 
ATOM     28  C   UNL     1       3.585  -5.036  25.113  0.00  0.00    +0.000 A 
ATOM     29  C   UNL     1       4.845  -5.553  25.413  0.00  0.00    +0.000 A 
ATOM     30  C   UNL     1       5.833  -5.532  24.513  0.00  0.00    +0.000 A 
ENDBRANCH  20  21
ENDBRANCH   5  20
TORSDOF 4
ENDMDL
MODEL 6
REMARK VINA RESULT:      -8.3      2.300      6.815
REMARK  Name = 
REMARK  4 active torsions:
REMARK  status: ('A' for Active; 'I' for Inactive)
REMARK    1  A    between atoms: C_17  and  C_18
REMARK    2  A    between atoms: C_18  and  N_21
REMARK    3  A    between atoms: C_29  and  C_31
REMARK    4  A    between atoms: C_31  and  C_34
REMARK                            x       y       z     vdW  Elec       q    Type
REMARK                         _______ _______ _______ _____ _____    ______ ____
ROOT
ATOM      1  N   UNL     1       6.138  -5.550  24.444  0.00  0.00    +0.000 NA
ATOM      2  C   UNL     1       4.969  -5.710  23.710  0.00  0.00    +0.000 C 
ATOM      3  C   UNL     1       4.781  -4.535  22.714  0.00  0.00    +0.000 C 
ATOM      4  N   UNL     1       6.118  -3.868  22.626  0.00  0.00    +0.000 N 
ATOM      5  C   UNL     1       6.093  -2.588  22.169  0.00  0.00    +0.000 C 
ATOM      6  O   UNL     1       5.445  -2.468  21.077  0.00  0.00    +0.000 OA
ATOM      7  C   UNL     1       7.194  -4.805  22.418  0.00  0.00    +0.000 C 
ATOM      8  C   UNL     1       7.261  -5.732  23.665  0.00  0.00    +0.000 C 
ENDROOT
BRANCH   1   9
ATOM      9  C   UNL     1       6.138  -5.754  25.796  0.00  0.00    +0.000 C 
BRANCH   9  18
ATOM     10  C   UNL     1       8.080  -2.688  26.395  0.00  0.00    +0.000 C 
ATOM     11  C   UNL     1       6.876  -1.937  26.498  0.00  0.00    +0.000 C 
ATOM     12  C   UNL     1       5.489  -2.550  26.648  0.00  0.00    +0.000 C 
ATOM     13  C   UNL     1       4.635  -2.498  25.692  0.00  0.00    +0.000 C 
ATOM     14  C   UNL     1       3.183  -2.316  26.475  0.00  0.00    +0.000 C 
ATOM     15  C   UNL     1       3.361  -3.502  27.327  0.00  0.00    +0.000 C 
ATOM     16  C   UNL     1       4.559  -4.261  27.787  0.00  0.00    +0.000 C 
ATOM     17  C   UNL     1       5.859  -3.922  27.553  0.00  0.00    +0.000 C 
ATOM     18  C   UNL     1       6.814  -4.691  26.715  0.00  0.00    +0.000 C 
ATOM     19  C   UNL     1       8.178  -4.284  26.587  0.00  0.00    +0.000 C 
ENDBRANCH   9  18
ENDBRANCH   1   9
BRANCH   5  20
ATOM     20  C   UNL     1       7.119  -1.635  22.503  0.00  0.00    +0.000 C 
BRANCH  20  21
ATOM     21  C   UNL     1       8.258  -1.298  21.542  0.00  0.00    +0.000 A 
ATOM     22  C   UNL     1       9.396  -1.463  22.310  0.00  0.00    +0.000 A 
ATOM     23  C   UNL     1      10.287  -0.547  23.234  0.00  0.00    +0.000 A 
ATOM     24  C   UNL     1       9.869   0.800  22.549  0.00  0.00    +0.000 A 
ATOM     25  C   UNL     1       9.331   1.255  21.530  0.00  0.00    +0.000 A 
ATOM     26  C   UNL     1       7.983   1.615  21.918  0.00  0.00    +0.000 A 
ATOM     27  C   UNL     1       6.718   1.954  21.483  0.00  0.00    +0.000 A 
ATOM     28  C   UNL     1       6.784   0.983  20.245  0.00  0.00    +0.000 A 
ATOM     29  C   UNL     1       7.919   0.275  19.852  0.00  0.00    +0.000 A 
ATOM     30  C   UNL     1       8.800  -0.175  20.751  0.00  0.00    +0.000 A 
ENDBRANCH  20  21
ENDBRANCH   5  20
TORSDOF 4
ENDMDL
MODEL 7
REMARK VINA RESULT:      -8.3      2.148      3.471
REMARK  Name = 
REMARK  4 active torsions:
REMARK  status: ('A' for Active; 'I' for Inactive)
REMARK    1  A    between atoms: C_17  and  C_18
REMARK    2  A    between atoms: C_18  and  N_21
REMARK    3  A    between atoms: C_29  and  C_31
REMARK    4  A    between atoms: C_31  and  C_34
REMARK                            x       y       z     vdW  Elec       q    Type
REMARK                         _______ _______ _______ _____ _____    ______ ____
ROOT
ATOM      1  N   UNL     1       7.890   1.646  23.778  0.00  0.00    +0.000 NA
ATOM      2  C   UNL     1       6.658   2.288  23.793  0.00  0.00    +0.000 C 
ATOM      3  C   UNL     1       5.571   1.376  24.422  0.00  0.00    +0.000 C 
ATOM      4  N   UNL     1       6.320   0.298  25.139  0.00  0.00    +0.000 N 
ATOM      5  C   UNL     1       5.606  -0.831  25.388  0.00  0.00    +0.000 C 
ATOM      6  O   UNL     1       4.488  -0.591  25.954  0.00  0.00    +0.000 OA
ATOM      7  C   UNL     1       7.376   0.815  25.974  0.00  0.00    +0.000 C 
ATOM      8  C   UNL     1       8.413   1.511  25.047  0.00  0.00    +0.000 C 
ENDROOT
BRANCH   1   9
ATOM      9  C   UNL     1       8.673   1.682  22.658  0.00  0.00    +0.000 C 
BRANCH   9  18
ATOM     10  C   UNL     1       9.982  -1.695  23.306  0.00  0.00    +0.000 C 
ATOM     11  C   UNL     1       8.932  -2.258  22.530  0.00  0.00    +0.000 C 
ATOM     12  C   UNL     1       8.023  -1.460  21.602  0.00  0.00    +0.000 C 
ATOM     13  C   UNL     1       6.786  -1.271  21.889  0.00  0.00    +0.000 C 
ATOM     14  C   UNL     1       6.032  -1.316  20.412  0.00  0.00    +0.000 C 
ATOM     15  C   UNL     1       6.885  -0.277  19.813  0.00  0.00    +0.000 C 
ATOM     16  C   UNL     1       8.250   0.232  20.127  0.00  0.00    +0.000 C 
ATOM     17  C   UNL     1       9.095  -0.275  21.071  0.00  0.00    +0.000 C 
ATOM     18  C   UNL     1       9.532   0.429  22.304  0.00  0.00    +0.000 C 
ATOM     19  C   UNL     1      10.475  -0.165  23.199  0.00  0.00    +0.000 C 
ENDBRANCH   9  18
ENDBRANCH   1   9
BRANCH   5  20
ATOM     20  C   UNL     1       6.235  -2.115  25.558  0.00  0.00    +0.000 C 
BRANCH  20  21
ATOM     21  C   UNL     1       6.105  -3.227  24.519  0.00  0.00    +0.000 A 
ATOM     22  C   UNL     1       4.745  -3.295  24.279  0.00  0.00    +0.000 A 
ATOM     23  C   UNL     1       3.526  -4.099  24.872  0.00  0.00    +0.000 A 
ATOM     24  C   UNL     1       4.388  -5.287  25.422  0.00  0.00    +0.000 A 
ATOM     25  C   UNL     1       5.510  -5.805  25.336  0.00  0.00    +0.000 A 
ATOM     26  C   UNL     1       6.233  -5.390  26.520  0.00  0.00    +0.000 A 
ATOM     27  C   UNL     1       7.465  -5.292  27.134  0.00  0.00    +0.000 A 
ATOM     28  C   UNL     1       8.212  -4.963  25.788  0.00  0.00    +0.000 A 
ATOM     29  C   UNL     1       7.623  -5.000  24.524  0.00  0.00    +0.000 A 
ATOM     30  C   UNL     1       6.338  -4.675  24.350  0.00  0.00    +0.000 A 
ENDBRANCH  20  21
ENDBRANCH   5  20
TORSDOF 4
ENDMDL
MODEL 8
REMARK VINA RESULT:      -8.2      2.270      6.435
REMARK  Name = 
REMARK  4 active torsions:
REMARK  status: ('A' for Active; 'I' for Inactive)
REMARK    1  A    between atoms: C_17  and  C_18
REMARK    2  A    between atoms: C_18  and  N_21
REMARK    3  A    between atoms: C_29  and  C_31
REMARK    4  A    between atoms: C_31  and  C_34
REMARK                            x       y       z     vdW  Elec       q    Type
REMARK                         _______ _______ _______ _____ _____    ______ ____
ROOT
ATOM      1  N   UNL     1       6.226  -0.988  26.499  0.00  0.00    +0.000 NA
ATOM      2  C   UNL     1       6.848  -0.177  27.441  0.00  0.00    +0.000 C 
ATOM      3  C   UNL     1       7.353   1.136  26.786  0.00  0.00    +0.000 C 
ATOM      4  N   UNL     1       6.642   1.228  25.473  0.00  0.00    +0.000 N 
ATOM      5  C   UNL     1       7.231   2.039  24.556  0.00  0.00    +0.000 C 
ATOM      6  O   UNL     1       7.494   3.198  25.020  0.00  0.00    +0.000 OA
ATOM      7  C   UNL     1       5.223   0.999  25.592  0.00  0.00    +0.000 C 
ATOM      8  C   UNL     1       5.020  -0.461  26.086  0.00  0.00    +0.000 C 
ENDROOT
BRANCH   1   9
ATOM      9  C   UNL     1       6.501  -2.326  26.450  0.00  0.00    +0.000 C 
BRANCH   9  18
ATOM     10  C   UNL     1       9.132  -4.778  25.674  0.00  0.00    +0.000 C 
ATOM     11  C   UNL     1       8.376  -5.247  24.564  0.00  0.00    +0.000 C 
ATOM     12  C   UNL     1       7.172  -4.523  23.973  0.00  0.00    +0.000 C 
ATOM     13  C   UNL     1       5.985  -4.993  24.106  0.00  0.00    +0.000 C 
ATOM     14  C   UNL     1       5.247  -4.601  22.674  0.00  0.00    +0.000 C 
ATOM     15  C   UNL     1       5.556  -3.165  22.772  0.00  0.00    +0.000 C 
ATOM     16  C   UNL     1       6.598  -2.392  23.506  0.00  0.00    +0.000 C 
ATOM     17  C   UNL     1       7.622  -2.921  24.234  0.00  0.00    +0.000 C 
ATOM     18  C   UNL     1       7.786  -2.801  25.706  0.00  0.00    +0.000 C 
ATOM     19  C   UNL     1       8.934  -3.337  26.367  0.00  0.00    +0.000 C 
ENDBRANCH   9  18
ENDBRANCH   1   9
BRANCH   5  20
ATOM     20  C   UNL     1       7.042   1.859  23.140  0.00  0.00    +0.000 C 
BRANCH  20  21
ATOM     21  C   UNL     1       8.187   2.014  22.141  0.00  0.00    +0.000 A 
ATOM     22  C   UNL     1       7.711   1.401  20.997  0.00  0.00    +0.000 A 
ATOM     23  C   UNL     1       7.752  -0.051  20.383  0.00  0.00    +0.000 A 
ATOM     24  C   UNL     1       9.041  -0.498  21.155  0.00  0.00    +0.000 A 
ATOM     25  C   UNL     1       9.999  -0.054  21.803  0.00  0.00    +0.000 A 
ATOM     26  C   UNL     1       9.686  -0.298  23.195  0.00  0.00    +0.000 A 
ATOM     27  C   UNL     1       9.998  -0.005  24.507  0.00  0.00    +0.000 A 
ATOM     28  C   UNL     1      10.334   1.499  24.188  0.00  0.00    +0.000 A 
ATOM     29  C   UNL     1      10.393   2.044  22.905  0.00  0.00    +0.000 A 
ATOM     30  C   UNL     1       9.591   1.605  21.930  0.00  0.00    +0.000 A 
ENDBRANCH  20  21
ENDBRANCH   5  20
TORSDOF 4
ENDMDL
MODEL 9
REMARK VINA RESULT:      -8.1      2.498      6.693
REMARK  Name = 
REMARK  4 active torsions:
REMARK  status: ('A' for Active; 'I' for Inactive)
REMARK    1  A    between atoms: C_17  and  C_18
REMARK    2  A    between atoms: C_18  and  N_21
REMARK    3  A    between atoms: C_29  and  C_31
REMARK    4  A    between atoms: C_31  and  C_34
REMARK                            x       y       z     vdW  Elec       q    Type
REMARK                         _______ _______ _______ _____ _____    ______ ____
ROOT
ATOM      1  N   UNL     1       6.201  -0.808  26.447  0.00  0.00    +0.000 NA
ATOM      2  C   UNL     1       6.799  -0.019  27.421  0.00  0.00    +0.000 C 
ATOM      3  C   UNL     1       7.312   1.313  26.810  0.00  0.00    +0.000 C 
ATOM      4  N   UNL     1       6.627   1.434  25.485  0.00  0.00    +0.000 N 
ATOM      5  C   UNL     1       7.232   2.269  24.600  0.00  0.00    +0.000 C 
ATOM      6  O   UNL     1       7.480   3.418  25.098  0.00  0.00    +0.000 OA
ATOM      7  C   UNL     1       5.208   1.196  25.568  0.00  0.00    +0.000 C 
ATOM      8  C   UNL     1       5.001  -0.277  26.021  0.00  0.00    +0.000 C 
ENDROOT
BRANCH   1   9
ATOM      9  C   UNL     1       6.483  -2.144  26.371  0.00  0.00    +0.000 C 
BRANCH   9  18
ATOM     10  C   UNL     1       6.628  -2.644  22.729  0.00  0.00    +0.000 C 
ATOM     11  C   UNL     1       7.743  -3.513  22.886  0.00  0.00    +0.000 C 
ATOM     12  C   UNL     1       8.194  -4.105  24.216  0.00  0.00    +0.000 C 
ATOM     13  C   UNL     1       9.284  -3.722  24.776  0.00  0.00    +0.000 C 
ATOM     14  C   UNL     1       9.868  -5.105  25.481  0.00  0.00    +0.000 C 
ATOM     15  C   UNL     1       8.634  -5.382  26.234  0.00  0.00    +0.000 C 
ATOM     16  C   UNL     1       7.210  -4.982  26.047  0.00  0.00    +0.000 C 
ATOM     17  C   UNL     1       6.709  -4.281  24.990  0.00  0.00    +0.000 C 
ATOM     18  C   UNL     1       6.143  -2.909  25.056  0.00  0.00    +0.000 C 
ATOM     19  C   UNL     1       5.579  -2.286  23.899  0.00  0.00    +0.000 C 
ENDBRANCH   9  18
ENDBRANCH   1   9
BRANCH   5  20
ATOM     20  C   UNL     1       7.073   2.124  23.176  0.00  0.00    +0.000 C 
BRANCH  20  21
ATOM     21  C   UNL     1       8.254   2.227  22.213  0.00  0.00    +0.000 A 
ATOM     22  C   UNL     1       7.749   1.740  21.021  0.00  0.00    +0.000 A 
ATOM     23  C   UNL     1       7.663   0.334  20.313  0.00  0.00    +0.000 A 
ATOM     24  C   UNL     1       8.881  -0.289  21.079  0.00  0.00    +0.000 A 
ATOM     25  C   UNL     1       9.862   0.015  21.773  0.00  0.00    +0.000 A 
ATOM     26  C   UNL     1       9.490  -0.286  23.140  0.00  0.00    +0.000 A 
ATOM     27  C   UNL     1       9.795  -0.110  24.474  0.00  0.00    +0.000 A 
ATOM     28  C   UNL     1      10.286   1.370  24.262  0.00  0.00    +0.000 A 
ATOM     29  C   UNL     1      10.431   1.988  23.020  0.00  0.00    +0.000 A 
ATOM     30  C   UNL     1       9.615   1.694  22.002  0.00  0.00    +0.000 A 
ENDBRANCH  20  21
ENDBRANCH   5  20
TORSDOF 4
ENDMDL
