MODEL 1
REMARK VINA RESULT:      -8.6      0.000      0.000
REMARK  Name = 
REMARK  6 active torsions:
REMARK  status: ('A' for Active; 'I' for Inactive)
REMARK    1  A    between atoms: C_7  and  C_8
REMARK    2  A    between atoms: C_24  and  C_26
REMARK    3  A    between atoms: C_26  and  N_29
REMARK    4  A    between atoms: N_29  and  C_31
REMARK    5  A    between atoms: C_40  and  N_41
REMARK    6  A    between atoms: C_49  and  C_51
REMARK                            x       y       z     vdW  Elec       q    Type
REMARK                         _______ _______ _______ _____ _____    ______ ____
ROOT
ATOM      1  C   UNL     1       8.738  -3.930  25.719  0.00  0.00    +0.000 C 
ENDROOT
BRANCH   1  11
ATOM      2  C   UNL     1       8.699  -1.122  21.780  0.00  0.00    +0.000 C 
ATOM      3  C   UNL     1       9.550  -0.169  22.490  0.00  0.00    +0.000 A 
ATOM      4  C   UNL     1      10.055   0.885  22.084  0.00  0.00    +0.000 A 
ATOM      5  C   UNL     1       9.904   2.322  22.433  0.00  0.00    +0.000 A 
ATOM      6  C   UNL     1       9.335   2.257  23.846  0.00  0.00    +0.000 A 
ATOM      7  C   UNL     1       8.766   1.331  24.647  0.00  0.00    +0.000 A 
ATOM      8  C   UNL     1       8.910  -0.011  23.907  0.00  0.00    +0.000 A 
ATOM      9  C   UNL     1       9.093  -1.211  24.762  0.00  0.00    +0.000 C 
ATOM     10  N   UNL     1       8.655  -2.230  24.054  0.00  0.00    +0.000 N 
ATOM     11  C   UNL     1       9.120  -3.561  24.368  0.00  0.00    +0.000 C 
ATOM     12  O   UNL     1      10.376  -3.319  24.086  0.00  0.00    +0.000 OA
ATOM     13  C   UNL     1       8.508  -2.219  22.752  0.00  0.00    +0.000 C 
BRANCH   2  17
ATOM     14  C   UNL     1       6.151  -0.534  18.468  0.00  0.00    +0.000 A 
ATOM     15  C   UNL     1       5.726  -1.306  19.713  0.00  0.00    +0.000 A 
ATOM     16  C   UNL     1       6.240  -1.195  21.070  0.00  0.00    +0.000 A 
ATOM     17  C   UNL     1       7.515  -0.378  21.105  0.00  0.00    +0.000 A 
ATOM     18  C   UNL     1       8.019   0.544  20.048  0.00  0.00    +0.000 A 
ATOM     19  C   UNL     1       7.386   0.191  18.632  0.00  0.00    +0.000 A 
ENDBRANCH   2  17
ENDBRANCH   1  11
BRANCH   1  20
ATOM     20  N   UNL     1       7.644  -4.819  26.062  0.00  0.00    +0.000 N 
ATOM     21  O   UNL     1       8.123  -5.781  26.518  0.00  0.00    +0.000 OA
BRANCH  20  22
ATOM     22  C   UNL     1       6.431  -4.530  26.116  0.00  0.00    +0.000 A 
ATOM     23  C   UNL     1       6.373  -3.172  26.857  0.00  0.00    +0.000 A 
ATOM     24  C   UNL     1       5.906  -1.853  26.298  0.00  0.00    +0.000 A 
ATOM     25  C   UNL     1       5.427  -2.191  24.928  0.00  0.00    +0.000 A 
ATOM     26  C   UNL     1       5.257  -3.295  24.074  0.00  0.00    +0.000 A 
ATOM     27  C   UNL     1       5.448  -4.511  25.039  0.00  0.00    +0.000 A 
BRANCH  27  28
ATOM     28  N   UNL     1       4.329  -5.334  25.063  0.00  0.00    +0.000 N 
ATOM     29  C   UNL     1       3.031  -4.727  24.905  0.00  0.00    +0.000 C 
ATOM     30  C   UNL     1       1.882  -5.704  25.016  0.00  0.00    +0.000 C 
ATOM     31  N   UNL     1       2.335  -6.876  25.727  0.00  0.00    +0.000 N 
ATOM     32  C   UNL     1       1.894  -7.197  26.957  0.00  0.00    +0.000 C 
ATOM     33  O   UNL     1       1.456  -8.331  27.148  0.00  0.00    +0.000 OA
ATOM     34  C   UNL     1       3.404  -7.638  25.115  0.00  0.00    +0.000 C 
ATOM     35  C   UNL     1       4.553  -6.722  24.741  0.00  0.00    +0.000 C 
BRANCH  32  36
ATOM     36  C   UNL     1       2.449  -6.387  28.098  0.00  0.00    +0.000 C 
ATOM     37 CL   UNL     1       4.110  -6.877  28.481  0.00  0.00    +0.000 Cl
ENDBRANCH  32  36
ENDBRANCH  27  28
ENDBRANCH  20  22
ENDBRANCH   1  20
TORSDOF 6
ENDMDL
MODEL 2
REMARK VINA RESULT:      -8.4      2.830      5.663
REMARK  Name = 
REMARK  6 active torsions:
REMARK  status: ('A' for Active; 'I' for Inactive)
REMARK    1  A    between atoms: C_7  and  C_8
REMARK    2  A    between atoms: C_24  and  C_26
REMARK    3  A    between atoms: C_26  and  N_29
REMARK    4  A    between atoms: N_29  and  C_31
REMARK    5  A    between atoms: C_40  and  N_41
REMARK    6  A    between atoms: C_49  and  C_51
REMARK                            x       y       z     vdW  Elec       q    Type
REMARK                         _______ _______ _______ _____ _____    ______ ____
ROOT
ATOM      1  C   UNL     1       7.426  -0.091  21.124  0.00  0.00    +0.000 C 
ENDROOT
BRANCH   1  11
ATOM      2  C   UNL     1       7.200   3.645  24.190  0.00  0.00    +0.000 C 
ATOM      3  C   UNL     1       8.294   4.274  23.454  0.00  0.00    +0.000 A 
ATOM      4  C   UNL     1       8.817   5.383  23.622  0.00  0.00    +0.000 A 
ATOM      5  C   UNL     1      10.170   5.855  24.016  0.00  0.00    +0.000 A 
ATOM      6  C   UNL     1      11.047   4.655  23.674  0.00  0.00    +0.000 A 
ATOM      7  C   UNL     1      10.875   3.348  23.384  0.00  0.00    +0.000 A 
ATOM      8  C   UNL     1       9.355   3.147  23.238  0.00  0.00    +0.000 A 
ATOM      9  C   UNL     1       8.925   2.130  22.245  0.00  0.00    +0.000 C 
ATOM     10  N   UNL     1       7.737   1.720  22.639  0.00  0.00    +0.000 N 
ATOM     11  C   UNL     1       6.843   1.120  21.677  0.00  0.00    +0.000 C 
ATOM     12  O   UNL     1       6.731   2.190  20.931  0.00  0.00    +0.000 OA
ATOM     13  C   UNL     1       6.960   2.383  23.459  0.00  0.00    +0.000 C 
BRANCH   2  17
ATOM     14  C   UNL     1       5.858   3.375  28.182  0.00  0.00    +0.000 A 
ATOM     15  C   UNL     1       6.603   2.244  27.481  0.00  0.00    +0.000 A 
ATOM     16  C   UNL     1       7.526   2.324  26.359  0.00  0.00    +0.000 A 
ATOM     17  C   UNL     1       7.486   3.694  25.716  0.00  0.00    +0.000 A 
ATOM     18  C   UNL     1       6.934   4.946  26.305  0.00  0.00    +0.000 A 
ATOM     19  C   UNL     1       5.887   4.622  27.458  0.00  0.00    +0.000 A 
ENDBRANCH   2  17
ENDBRANCH   1  11
BRANCH   1  20
ATOM     20  N   UNL     1       7.221  -1.428  21.649  0.00  0.00    +0.000 N 
ATOM     21  O   UNL     1       6.323  -1.886  21.059  0.00  0.00    +0.000 OA
BRANCH  20  22
ATOM     22  C   UNL     1       7.995  -2.072  22.386  0.00  0.00    +0.000 A 
ATOM     23  C   UNL     1       9.417  -1.645  21.947  0.00  0.00    +0.000 A 
ATOM     24  C   UNL     1      10.436  -0.901  22.770  0.00  0.00    +0.000 A 
ATOM     25  C   UNL     1       9.795  -0.776  24.110  0.00  0.00    +0.000 A 
ATOM     26  C   UNL     1       8.626  -1.147  24.798  0.00  0.00    +0.000 A 
ATOM     27  C   UNL     1       7.979  -2.199  23.838  0.00  0.00    +0.000 A 
BRANCH  27  28
ATOM     28  N   UNL     1       7.813  -3.431  24.458  0.00  0.00    +0.000 N 
ATOM     29  C   UNL     1       6.674  -4.233  24.090  0.00  0.00    +0.000 C 
ATOM     30  C   UNL     1       6.552  -5.520  24.874  0.00  0.00    +0.000 C 
ATOM     31  N   UNL     1       7.302  -5.389  26.101  0.00  0.00    +0.000 N 
ATOM     32  C   UNL     1       6.715  -5.339  27.312  0.00  0.00    +0.000 C 
ATOM     33  O   UNL     1       7.105  -6.110  28.186  0.00  0.00    +0.000 OA
ATOM     34  C   UNL     1       8.728  -5.171  25.975  0.00  0.00    +0.000 C 
ATOM     35  C   UNL     1       9.001  -4.027  25.018  0.00  0.00    +0.000 C 
BRANCH  32  36
ATOM     36  C   UNL     1       6.043  -4.042  27.675  0.00  0.00    +0.000 C 
ATOM     37 CL   UNL     1       4.298  -4.120  27.370  0.00  0.00    +0.000 Cl
ENDBRANCH  32  36
ENDBRANCH  27  28
ENDBRANCH  20  22
ENDBRANCH   1  20
TORSDOF 6
ENDMDL
MODEL 3
REMARK VINA RESULT:      -8.1      3.560      7.721
REMARK  Name = 
REMARK  6 active torsions:
REMARK  status: ('A' for Active; 'I' for Inactive)
REMARK    1  A    between atoms: C_7  and  C_8
REMARK    2  A    between atoms: C_24  and  C_26
REMARK    3  A    between atoms: C_26  and  N_29
REMARK    4  A    between atoms: N_29  and  C_31
REMARK    5  A    between atoms: C_40  and  N_41
REMARK    6  A    between atoms: C_49  and  C_51
REMARK                            x       y       z     vdW  Elec       q    Type
REMARK                         _______ _______ _______ _____ _____    ______ ____
ROOT
ATOM      1  C   UNL     1       5.329   0.955  26.171  0.00  0.00    +0.000 C 
ENDROOT
BRANCH   1  11
ATOM      2  C   UNL     1       5.080  -3.714  24.929  0.00  0.00    +0.000 C 
ATOM      3  C   UNL     1       6.395  -3.913  25.535  0.00  0.00    +0.000 A 
ATOM      4  C   UNL     1       7.046  -4.956  25.671  0.00  0.00    +0.000 A 
ATOM      5  C   UNL     1       8.344  -5.457  25.147  0.00  0.00    +0.000 A 
ATOM      6  C   UNL     1       9.062  -4.167  24.767  0.00  0.00    +0.000 A 
ATOM      7  C   UNL     1       8.741  -2.870  24.572  0.00  0.00    +0.000 A 
ATOM      8  C   UNL     1       7.275  -2.728  25.022  0.00  0.00    +0.000 A 
ATOM      9  C   UNL     1       6.903  -1.425  25.628  0.00  0.00    +0.000 C 
ATOM     10  N   UNL     1       5.608  -1.292  25.434  0.00  0.00    +0.000 N 
ATOM     11  C   UNL     1       4.851  -0.411  26.292  0.00  0.00    +0.000 C 
ATOM     12  O   UNL     1       5.078  -1.088  27.390  0.00  0.00    +0.000 OA
ATOM     13  C   UNL     1       4.795  -2.282  25.160  0.00  0.00    +0.000 C 
BRANCH   2  17
ATOM     14  C   UNL     1       7.030  -5.673  21.739  0.00  0.00    +0.000 A 
ATOM     15  C   UNL     1       6.151  -6.406  22.748  0.00  0.00    +0.000 A 
ATOM     16  C   UNL     1       5.064  -5.877  23.558  0.00  0.00    +0.000 A 
ATOM     17  C   UNL     1       5.040  -4.364  23.518  0.00  0.00    +0.000 A 
ATOM     18  C   UNL     1       5.714  -3.482  22.524  0.00  0.00    +0.000 A 
ATOM     19  C   UNL     1       6.921  -4.237  21.814  0.00  0.00    +0.000 A 
ENDBRANCH   2  17
ENDBRANCH   1  11
BRANCH   1  20
ATOM     20  N   UNL     1       5.183   1.786  24.990  0.00  0.00    +0.000 N 
ATOM     21  O   UNL     1       4.057   2.088  24.930  0.00  0.00    +0.000 OA
BRANCH  20  22
ATOM     22  C   UNL     1       6.099   2.302  24.318  0.00  0.00    +0.000 A 
ATOM     23  C   UNL     1       5.492   3.605  23.744  0.00  0.00    +0.000 A 
ATOM     24  C   UNL     1       5.922   5.016  24.049  0.00  0.00    +0.000 A 
ATOM     25  C   UNL     1       7.111   4.850  24.931  0.00  0.00    +0.000 A 
ATOM     26  C   UNL     1       7.917   3.845  25.495  0.00  0.00    +0.000 A 
ATOM     27  C   UNL     1       7.479   2.567  24.707  0.00  0.00    +0.000 A 
BRANCH  27  28
ATOM     28  N   UNL     1       8.547   1.978  24.042  0.00  0.00    +0.000 N 
ATOM     29  C   UNL     1       8.999   2.574  22.811  0.00  0.00    +0.000 C 
ATOM     30  C   UNL     1      10.119   1.812  22.137  0.00  0.00    +0.000 C 
ATOM     31  N   UNL     1      10.115   0.453  22.624  0.00  0.00    +0.000 N 
ATOM     32  C   UNL     1       9.789  -0.597  21.848  0.00  0.00    +0.000 C 
ATOM     33  O   UNL     1      10.565  -1.550  21.792  0.00  0.00    +0.000 OA
ATOM     34  C   UNL     1      10.347   0.266  24.041  0.00  0.00    +0.000 C 
ATOM     35  C   UNL     1       9.423   1.160  24.846  0.00  0.00    +0.000 C 
BRANCH  32  36
ATOM     36  C   UNL     1       8.324  -0.782  21.554  0.00  0.00    +0.000 C 
ATOM     37 CL   UNL     1       7.891  -0.064  19.990  0.00  0.00    +0.000 Cl
ENDBRANCH  32  36
ENDBRANCH  27  28
ENDBRANCH  20  22
ENDBRANCH   1  20
TORSDOF 6
ENDMDL
MODEL 4
REMARK VINA RESULT:      -8.1      3.456      7.793
REMARK  Name = 
REMARK  6 active torsions:
REMARK  status: ('A' for Active; 'I' for Inactive)
REMARK    1  A    between atoms: C_7  and  C_8
REMARK    2  A    between atoms: C_24  and  C_26
REMARK    3  A    between atoms: C_26  and  N_29
REMARK    4  A    between atoms: N_29  and  C_31
REMARK    5  A    between atoms: C_40  and  N_41
REMARK    6  A    between atoms: C_49  and  C_51
REMARK                            x       y       z     vdW  Elec       q    Type
REMARK                         _______ _______ _______ _____ _____    ______ ____
ROOT
ATOM      1  C   UNL     1       5.590   0.041  26.781  0.00  0.00    +0.000 C 
ENDROOT
BRANCH   1  11
ATOM      2  C   UNL     1       4.597  -4.307  24.909  0.00  0.00    +0.000 C 
ATOM      3  C   UNL     1       4.159  -4.743  26.233  0.00  0.00    +0.000 A 
ATOM      4  C   UNL     1       3.672  -5.826  26.582  0.00  0.00    +0.000 A 
ATOM      5  C   UNL     1       4.101  -6.925  27.486  0.00  0.00    +0.000 A 
ATOM      6  C   UNL     1       5.109  -6.228  28.392  0.00  0.00    +0.000 A 
ATOM      7  C   UNL     1       5.808  -5.073  28.400  0.00  0.00    +0.000 A 
ATOM      8  C   UNL     1       5.262  -4.244  27.222  0.00  0.00    +0.000 A 
ATOM      9  C   UNL     1       5.246  -2.772  27.414  0.00  0.00    +0.000 C 
ATOM     10  N   UNL     1       5.292  -2.250  26.206  0.00  0.00    +0.000 N 
ATOM     11  C   UNL     1       4.812  -0.904  26.000  0.00  0.00    +0.000 C 
ATOM     12  O   UNL     1       3.573  -1.165  26.335  0.00  0.00    +0.000 OA
ATOM     13  C   UNL     1       4.982  -2.894  25.108  0.00  0.00    +0.000 C 
BRANCH   2  17
ATOM     14  C   UNL     1       7.142  -5.564  21.785  0.00  0.00    +0.000 A 
ATOM     15  C   UNL     1       7.664  -4.997  23.102  0.00  0.00    +0.000 A 
ATOM     16  C   UNL     1       7.015  -4.981  24.404  0.00  0.00    +0.000 A 
ATOM     17  C   UNL     1       5.554  -5.363  24.290  0.00  0.00    +0.000 A 
ATOM     18  C   UNL     1       4.893  -6.053  23.146  0.00  0.00    +0.000 A 
ATOM     19  C   UNL     1       5.734  -5.874  21.808  0.00  0.00    +0.000 A 
ENDBRANCH   2  17
ENDBRANCH   1  11
BRANCH   1  20
ATOM     20  N   UNL     1       6.764   0.748  26.304  0.00  0.00    +0.000 N 
ATOM     21  O   UNL     1       7.567   0.672  27.148  0.00  0.00    +0.000 OA
BRANCH  20  22
ATOM     22  C   UNL     1       6.986   1.133  25.138  0.00  0.00    +0.000 A 
ATOM     23  C   UNL     1       6.715   2.656  25.157  0.00  0.00    +0.000 A 
ATOM     24  C   UNL     1       7.715   3.759  24.925  0.00  0.00    +0.000 A 
ATOM     25  C   UNL     1       8.972   3.038  24.576  0.00  0.00    +0.000 A 
ATOM     26  C   UNL     1       9.462   1.735  24.376  0.00  0.00    +0.000 A 
ATOM     27  C   UNL     1       8.153   0.882  24.300  0.00  0.00    +0.000 A 
BRANCH  27  28
ATOM     28  N   UNL     1       8.049   0.200  23.094  0.00  0.00    +0.000 N 
ATOM     29  C   UNL     1       9.045   0.445  22.083  0.00  0.00    +0.000 C 
ATOM     30  C   UNL     1       8.797  -0.296  20.787  0.00  0.00    +0.000 C 
ATOM     31  N   UNL     1       7.401  -0.659  20.720  0.00  0.00    +0.000 N 
ATOM     32  C   UNL     1       6.549  -0.113  19.833  0.00  0.00    +0.000 C 
ATOM     33  O   UNL     1       5.871  -0.862  19.131  0.00  0.00    +0.000 OA
ATOM     34  C   UNL     1       6.908  -1.548  21.750  0.00  0.00    +0.000 C 
ATOM     35  C   UNL     1       7.293  -1.028  23.122  0.00  0.00    +0.000 C 
BRANCH  32  36
ATOM     36  C   UNL     1       6.089   1.291  20.124  0.00  0.00    +0.000 C 
ATOM     37 CL   UNL     1       4.624   1.686  19.205  0.00  0.00    +0.000 Cl
ENDBRANCH  32  36
ENDBRANCH  27  28
ENDBRANCH  20  22
ENDBRANCH   1  20
TORSDOF 6
ENDMDL
MODEL 5
REMARK VINA RESULT:      -8.0      2.513      3.870
REMARK  Name = 
REMARK  6 active torsions:
REMARK  status: ('A' for Active; 'I' for Inactive)
REMARK    1  A    between atoms: C_7  and  C_8
REMARK    2  A    between atoms: C_24  and  C_26
REMARK    3  A    between atoms: C_26  and  N_29
REMARK    4  A    between atoms: N_29  and  C_31
REMARK    5  A    between atoms: C_40  and  N_41
REMARK    6  A    between atoms: C_49  and  C_51
REMARK                            x       y       z     vdW  Elec       q    Type
REMARK                         _______ _______ _______ _____ _____    ______ ____
ROOT
ATOM      1  C   UNL     1       8.440  -4.795  26.425  0.00  0.00    +0.000 C 
ENDROOT
BRANCH   1  11
ATOM      2  C   UNL     1       8.610  -2.021  22.466  0.00  0.00    +0.000 C 
ATOM      3  C   UNL     1       9.668  -1.236  23.099  0.00  0.00    +0.000 A 
ATOM      4  C   UNL     1      10.322  -0.289  22.644  0.00  0.00    +0.000 A 
ATOM      5  C   UNL     1      10.456   1.151  22.986  0.00  0.00    +0.000 A 
ATOM      6  C   UNL     1       9.992   1.187  24.438  0.00  0.00    +0.000 A 
ATOM      7  C   UNL     1       9.328   0.377  25.290  0.00  0.00    +0.000 A 
ATOM      8  C   UNL     1       9.174  -0.968  24.557  0.00  0.00    +0.000 A 
ATOM      9  C   UNL     1       9.203  -2.182  25.411  0.00  0.00    +0.000 C 
ATOM     10  N   UNL     1       8.537  -3.105  24.750  0.00  0.00    +0.000 N 
ATOM     11  C   UNL     1       8.779  -4.498  25.045  0.00  0.00    +0.000 C 
ATOM     12  O   UNL     1      10.034  -4.485  24.669  0.00  0.00    +0.000 OA
ATOM     13  C   UNL     1       8.298  -3.067  23.462  0.00  0.00    +0.000 C 
BRANCH   2  17
ATOM     14  C   UNL     1       7.083   1.863  21.834  0.00  0.00    +0.000 A 
ATOM     15  C   UNL     1       7.840   1.086  20.762  0.00  0.00    +0.000 A 
ATOM     16  C   UNL     1       7.993  -0.354  20.622  0.00  0.00    +0.000 A 
ATOM     17  C   UNL     1       7.531  -1.075  21.870  0.00  0.00    +0.000 A 
ATOM     18  C   UNL     1       6.667  -0.528  22.955  0.00  0.00    +0.000 A 
ATOM     19  C   UNL     1       6.712   1.061  22.974  0.00  0.00    +0.000 A 
ENDBRANCH   2  17
ENDBRANCH   1  11
BRANCH   1  20
ATOM     20  N   UNL     1       7.169  -5.335  26.872  0.00  0.00    +0.000 N 
ATOM     21  O   UNL     1       7.396  -5.991  27.811  0.00  0.00    +0.000 OA
BRANCH  20  22
ATOM     22  C   UNL     1       6.031  -4.975  26.510  0.00  0.00    +0.000 A 
ATOM     23  C   UNL     1       5.780  -5.717  25.176  0.00  0.00    +0.000 A 
ATOM     24  C   UNL     1       4.730  -6.763  24.904  0.00  0.00    +0.000 A 
ATOM     25  C   UNL     1       3.946  -6.826  26.170  0.00  0.00    +0.000 A 
ATOM     26  C   UNL     1       3.873  -6.222  27.437  0.00  0.00    +0.000 A 
ATOM     27  C   UNL     1       4.789  -4.965  27.274  0.00  0.00    +0.000 A 
BRANCH  27  28
ATOM     28  N   UNL     1       4.099  -3.786  27.524  0.00  0.00    +0.000 N 
ATOM     29  C   UNL     1       3.015  -3.429  26.643  0.00  0.00    +0.000 C 
ATOM     30  C   UNL     1       2.379  -2.095  26.965  0.00  0.00    +0.000 C 
ATOM     31  N   UNL     1       3.313  -1.310  27.736  0.00  0.00    +0.000 N 
ATOM     32  C   UNL     1       3.900  -0.197  27.257  0.00  0.00    +0.000 C 
ATOM     33  O   UNL     1       3.836   0.835  27.922  0.00  0.00    +0.000 OA
ATOM     34  C   UNL     1       3.710  -1.844  29.022  0.00  0.00    +0.000 C 
ATOM     35  C   UNL     1       4.165  -3.283  28.874  0.00  0.00    +0.000 C 
BRANCH  32  36
ATOM     36  C   UNL     1       5.015  -0.404  26.266  0.00  0.00    +0.000 C 
ATOM     37 CL   UNL     1       6.457  -1.069  27.056  0.00  0.00    +0.000 Cl
ENDBRANCH  32  36
ENDBRANCH  27  28
ENDBRANCH  20  22
ENDBRANCH   1  20
TORSDOF 6
ENDMDL
MODEL 6
REMARK VINA RESULT:      -8.0      2.903      4.119
REMARK  Name = 
REMARK  6 active torsions:
REMARK  status: ('A' for Active; 'I' for Inactive)
REMARK    1  A    between atoms: C_7  and  C_8
REMARK    2  A    between atoms: C_24  and  C_26
REMARK    3  A    between atoms: C_26  and  N_29
REMARK    4  A    between atoms: N_29  and  C_31
REMARK    5  A    between atoms: C_40  and  N_41
REMARK    6  A    between atoms: C_49  and  C_51
REMARK                            x       y       z     vdW  Elec       q    Type
REMARK                         _______ _______ _______ _____ _____    ______ ____
ROOT
ATOM      1  C   UNL     1       6.133  -0.207  27.051  0.00  0.00    +0.000 C 
ENDROOT
BRANCH   1  11
ATOM      2  C   UNL     1       8.940   0.546  23.184  0.00  0.00    +0.000 C 
ATOM      3  C   UNL     1       9.672   1.552  23.950  0.00  0.00    +0.000 A 
ATOM      4  C   UNL     1      10.663   2.218  23.625  0.00  0.00    +0.000 A 
ATOM      5  C   UNL     1      10.931   3.664  23.413  0.00  0.00    +0.000 A 
ATOM      6  C   UNL     1       9.812   4.324  24.210  0.00  0.00    +0.000 A 
ATOM      7  C   UNL     1       8.639   3.957  24.770  0.00  0.00    +0.000 A 
ATOM      8  C   UNL     1       8.577   2.423  24.648  0.00  0.00    +0.000 A 
ATOM      9  C   UNL     1       7.885   1.710  25.750  0.00  0.00    +0.000 C 
ATOM     10  N   UNL     1       7.460   0.575  25.235  0.00  0.00    +0.000 N 
ATOM     11  C   UNL     1       7.189  -0.540  26.112  0.00  0.00    +0.000 C 
ATOM     12  O   UNL     1       8.423  -0.666  26.533  0.00  0.00    +0.000 OA
ATOM     13  C   UNL     1       7.931   0.038  24.137  0.00  0.00    +0.000 C 
BRANCH   2  17
ATOM     14  C   UNL     1       6.333   0.700  19.868  0.00  0.00    +0.000 A 
ATOM     15  C   UNL     1       6.369   1.780  20.944  0.00  0.00    +0.000 A 
ATOM     16  C   UNL     1       7.464   2.143  21.831  0.00  0.00    +0.000 A 
ATOM     17  C   UNL     1       8.569   1.109  21.784  0.00  0.00    +0.000 A 
ATOM     18  C   UNL     1       8.782   0.069  20.737  0.00  0.00    +0.000 A 
ATOM     19  C   UNL     1       7.435  -0.226  19.943  0.00  0.00    +0.000 A 
ENDBRANCH   2  17
ENDBRANCH   1  11
BRANCH   1  20
ATOM     20  N   UNL     1       4.913  -0.971  27.238  0.00  0.00    +0.000 N 
ATOM     21  O   UNL     1       4.035  -0.202  27.250  0.00  0.00    +0.000 OA
BRANCH  20  22
ATOM     22  C   UNL     1       4.780  -2.208  27.141  0.00  0.00    +0.000 A 
ATOM     23  C   UNL     1       3.976  -2.627  28.395  0.00  0.00    +0.000 A 
ATOM     24  C   UNL     1       2.592  -3.222  28.429  0.00  0.00    +0.000 A 
ATOM     25  C   UNL     1       2.242  -3.403  26.991  0.00  0.00    +0.000 A 
ATOM     26  C   UNL     1       2.788  -3.231  25.707  0.00  0.00    +0.000 A 
ATOM     27  C   UNL     1       4.304  -2.989  26.005  0.00  0.00    +0.000 A 
BRANCH  27  28
ATOM     28  N   UNL     1       5.111  -3.933  25.383  0.00  0.00    +0.000 N 
ATOM     29  C   UNL     1       6.444  -4.133  25.890  0.00  0.00    +0.000 C 
ATOM     30  C   UNL     1       7.258  -5.132  25.097  0.00  0.00    +0.000 C 
ATOM     31  N   UNL     1       6.683  -5.256  23.779  0.00  0.00    +0.000 N 
ATOM     32  C   UNL     1       7.308  -4.823  22.668  0.00  0.00    +0.000 C 
ATOM     33  O   UNL     1       7.438  -5.602  21.725  0.00  0.00    +0.000 OA
ATOM     34  C   UNL     1       5.324  -5.749  23.703  0.00  0.00    +0.000 C 
ATOM     35  C   UNL     1       4.427  -4.964  24.641  0.00  0.00    +0.000 C 
BRANCH  32  36
ATOM     36  C   UNL     1       7.312  -3.335  22.440  0.00  0.00    +0.000 C 
ATOM     37 CL   UNL     1       5.710  -2.761  21.938  0.00  0.00    +0.000 Cl
ENDBRANCH  32  36
ENDBRANCH  27  28
ENDBRANCH  20  22
ENDBRANCH   1  20
TORSDOF 6
ENDMDL
MODEL 7
REMARK VINA RESULT:      -8.0      4.147      7.315
REMARK  Name = 
REMARK  6 active torsions:
REMARK  status: ('A' for Active; 'I' for Inactive)
REMARK    1  A    between atoms: C_7  and  C_8
REMARK    2  A    between atoms: C_24  and  C_26
REMARK    3  A    between atoms: C_26  and  N_29
REMARK    4  A    between atoms: N_29  and  C_31
REMARK    5  A    between atoms: C_40  and  N_41
REMARK    6  A    between atoms: C_49  and  C_51
REMARK                            x       y       z     vdW  Elec       q    Type
REMARK                         _______ _______ _______ _____ _____    ______ ____
ROOT
ATOM      1  C   UNL     1       9.782   0.662  22.228  0.00  0.00    +0.000 C 
ENDROOT
BRANCH   1  11
ATOM      2  C   UNL     1       9.139  -3.361  24.836  0.00  0.00    +0.000 C 
ATOM      3  C   UNL     1       8.219  -3.843  23.808  0.00  0.00    +0.000 A 
ATOM      4  C   UNL     1       7.626  -4.927  23.731  0.00  0.00    +0.000 A 
ATOM      5  C   UNL     1       6.200  -5.344  23.756  0.00  0.00    +0.000 A 
ATOM      6  C   UNL     1       5.477  -4.062  23.360  0.00  0.00    +0.000 A 
ATOM      7  C   UNL     1       5.765  -2.747  23.262  0.00  0.00    +0.000 A 
ATOM      8  C   UNL     1       7.285  -2.633  23.484  0.00  0.00    +0.000 A 
ATOM      9  C   UNL     1       7.974  -1.554  22.732  0.00  0.00    +0.000 C 
ATOM     10  N   UNL     1       9.054  -1.264  23.425  0.00  0.00    +0.000 N 
ATOM     11  C   UNL     1      10.170  -0.632  22.761  0.00  0.00    +0.000 C 
ATOM     12  O   UNL     1      10.407  -1.630  21.947  0.00  0.00    +0.000 OA
ATOM     13  C   UNL     1       9.593  -2.052  24.321  0.00  0.00    +0.000 C 
BRANCH   2  17
ATOM     14  C   UNL     1       5.873  -4.453  27.275  0.00  0.00    +0.000 A 
ATOM     15  C   UNL     1       7.081  -5.358  27.055  0.00  0.00    +0.000 A 
ATOM     16  C   UNL     1       8.439  -4.986  26.687  0.00  0.00    +0.000 A 
ATOM     17  C   UNL     1       8.507  -3.540  26.244  0.00  0.00    +0.000 A 
ATOM     18  C   UNL     1       7.494  -2.476  26.493  0.00  0.00    +0.000 A 
ATOM     19  C   UNL     1       6.066  -3.107  26.797  0.00  0.00    +0.000 A 
ENDBRANCH   2  17
ENDBRANCH   1  11
BRANCH   1  20
ATOM     20  N   UNL     1       9.738   1.897  22.989  0.00  0.00    +0.000 N 
ATOM     21  O   UNL     1      10.679   2.515  22.680  0.00  0.00    +0.000 OA
BRANCH  20  22
ATOM     22  C   UNL     1       8.772   2.343  23.640  0.00  0.00    +0.000 A 
ATOM     23  C   UNL     1       8.740   3.858  23.327  0.00  0.00    +0.000 A 
ATOM     24  C   UNL     1       7.653   4.612  22.605  0.00  0.00    +0.000 A 
ATOM     25  C   UNL     1       6.597   3.588  22.370  0.00  0.00    +0.000 A 
ATOM     26  C   UNL     1       6.313   2.235  22.632  0.00  0.00    +0.000 A 
ATOM     27  C   UNL     1       7.400   1.853  23.690  0.00  0.00    +0.000 A 
BRANCH  27  28
ATOM     28  N   UNL     1       6.831   1.404  24.876  0.00  0.00    +0.000 N 
ATOM     29  C   UNL     1       5.575   0.701  24.809  0.00  0.00    +0.000 C 
ATOM     30  C   UNL     1       5.014   0.319  26.161  0.00  0.00    +0.000 C 
ATOM     31  N   UNL     1       5.610   1.167  27.166  0.00  0.00    +0.000 N 
ATOM     32  C   UNL     1       4.909   2.094  27.846  0.00  0.00    +0.000 C 
ATOM     33  O   UNL     1       4.964   2.089  29.074  0.00  0.00    +0.000 OA
ATOM     34  C   UNL     1       7.046   1.078  27.328  0.00  0.00    +0.000 C 
ATOM     35  C   UNL     1       7.735   1.221  25.986  0.00  0.00    +0.000 C 
BRANCH  32  36
ATOM     36  C   UNL     1       4.569   3.355  27.097  0.00  0.00    +0.000 C 
ATOM     37 CL   UNL     1       5.982   4.418  26.961  0.00  0.00    +0.000 Cl
ENDBRANCH  32  36
ENDBRANCH  27  28
ENDBRANCH  20  22
ENDBRANCH   1  20
TORSDOF 6
ENDMDL
MODEL 8
REMARK VINA RESULT:      -8.0      2.750      4.520
REMARK  Name = 
REMARK  6 active torsions:
REMARK  status: ('A' for Active; 'I' for Inactive)
REMARK    1  A    between atoms: C_7  and  C_8
REMARK    2  A    between atoms: C_24  and  C_26
REMARK    3  A    between atoms: C_26  and  N_29
REMARK    4  A    between atoms: N_29  and  C_31
REMARK    5  A    between atoms: C_40  and  N_41
REMARK    6  A    between atoms: C_49  and  C_51
REMARK                            x       y       z     vdW  Elec       q    Type
REMARK                         _______ _______ _______ _____ _____    ______ ____
ROOT
ATOM      1  C   UNL     1       9.864  -1.477  23.987  0.00  0.00    +0.000 C 
ENDROOT
BRANCH   1  11
ATOM      2  C   UNL     1       8.776   3.185  23.292  0.00  0.00    +0.000 C 
ATOM      3  C   UNL     1       8.475   3.295  24.718  0.00  0.00    +0.000 A 
ATOM      4  C   UNL     1       8.145   4.290  25.376  0.00  0.00    +0.000 A 
ATOM      5  C   UNL     1       6.929   4.690  26.132  0.00  0.00    +0.000 A 
ATOM      6  C   UNL     1       6.263   3.349  26.415  0.00  0.00    +0.000 A 
ATOM      7  C   UNL     1       6.363   2.076  25.974  0.00  0.00    +0.000 A 
ATOM      8  C   UNL     1       7.600   2.045  25.058  0.00  0.00    +0.000 A 
ATOM      9  C   UNL     1       8.374   0.778  25.052  0.00  0.00    +0.000 C 
ATOM     10  N   UNL     1       8.992   0.737  23.890  0.00  0.00    +0.000 N 
ATOM     11  C   UNL     1      10.175  -0.079  23.748  0.00  0.00    +0.000 C 
ATOM     12  O   UNL     1      10.889   0.591  24.618  0.00  0.00    +0.000 OA
ATOM     13  C   UNL     1       9.203   1.780  23.127  0.00  0.00    +0.000 C 
BRANCH   2  17
ATOM     14  C   UNL     1       4.951   4.955  23.060  0.00  0.00    +0.000 A 
ATOM     15  C   UNL     1       6.243   5.764  23.001  0.00  0.00    +0.000 A 
ATOM     16  C   UNL     1       7.568   5.330  22.585  0.00  0.00    +0.000 A 
ATOM     17  C   UNL     1       7.632   3.823  22.456  0.00  0.00    +0.000 A 
ATOM     18  C   UNL     1       6.482   2.881  22.352  0.00  0.00    +0.000 A 
ATOM     19  C   UNL     1       5.155   3.533  22.937  0.00  0.00    +0.000 A 
ENDBRANCH   2  17
ENDBRANCH   1  11
BRANCH   1  20
ATOM     20  N   UNL     1       9.008  -2.295  23.148  0.00  0.00    +0.000 N 
ATOM     21  O   UNL     1       9.643  -2.595  22.215  0.00  0.00    +0.000 OA
BRANCH  20  22
ATOM     22  C   UNL     1       7.914  -2.806  23.464  0.00  0.00    +0.000 A 
ATOM     23  C   UNL     1       6.859  -2.044  22.626  0.00  0.00    +0.000 A 
ATOM     24  C   UNL     1       5.975  -2.614  21.547  0.00  0.00    +0.000 A 
ATOM     25  C   UNL     1       6.284  -4.072  21.558  0.00  0.00    +0.000 A 
ATOM     26  C   UNL     1       7.068  -5.014  22.248  0.00  0.00    +0.000 A 
ATOM     27  C   UNL     1       7.542  -4.215  23.506  0.00  0.00    +0.000 A 
BRANCH  27  28
ATOM     28  N   UNL     1       7.144  -4.826  24.688  0.00  0.00    +0.000 N 
ATOM     29  C   UNL     1       5.924  -5.592  24.683  0.00  0.00    +0.000 C 
ATOM     30  C   UNL     1       5.549  -6.155  26.037  0.00  0.00    +0.000 C 
ATOM     31  N   UNL     1       6.221  -5.389  27.060  0.00  0.00    +0.000 N 
ATOM     32  C   UNL     1       5.565  -4.588  27.919  0.00  0.00    +0.000 C 
ATOM     33  O   UNL     1       5.768  -4.725  29.124  0.00  0.00    +0.000 OA
ATOM     34  C   UNL     1       7.669  -5.408  27.044  0.00  0.00    +0.000 C 
ATOM     35  C   UNL     1       8.183  -5.075  25.657  0.00  0.00    +0.000 C 
BRANCH  32  36
ATOM     36  C   UNL     1       5.077  -3.274  27.367  0.00  0.00    +0.000 C 
ATOM     37 CL   UNL     1       6.436  -2.213  26.951  0.00  0.00    +0.000 Cl
ENDBRANCH  32  36
ENDBRANCH  27  28
ENDBRANCH  20  22
ENDBRANCH   1  20
TORSDOF 6
ENDMDL
MODEL 9
REMARK VINA RESULT:      -8.0      2.670      4.847
REMARK  Name = 
REMARK  6 active torsions:
REMARK  status: ('A' for Active; 'I' for Inactive)
REMARK    1  A    between atoms: C_7  and  C_8
REMARK    2  A    between atoms: C_24  and  C_26
REMARK    3  A    between atoms: C_26  and  N_29
REMARK    4  A    between atoms: N_29  and  C_31
REMARK    5  A    between atoms: C_40  and  N_41
REMARK    6  A    between atoms: C_49  and  C_51
REMARK                            x       y       z     vdW  Elec       q    Type
REMARK                         _______ _______ _______ _____ _____    ______ ____
ROOT
ATOM      1  C   UNL     1       8.423  -0.859  21.203  0.00  0.00    +0.000 C 
ENDROOT
BRANCH   1  11
ATOM      2  C   UNL     1       7.284   2.978  23.920  0.00  0.00    +0.000 C 
ATOM      3  C   UNL     1       8.316   3.740  23.220  0.00  0.00    +0.000 A 
ATOM      4  C   UNL     1       8.624   4.934  23.335  0.00  0.00    +0.000 A 
ATOM      5  C   UNL     1       9.835   5.664  23.791  0.00  0.00    +0.000 A 
ATOM      6  C   UNL     1      10.932   4.619  23.618  0.00  0.00    +0.000 A 
ATOM      7  C   UNL     1      11.013   3.285  23.426  0.00  0.00    +0.000 A 
ATOM      8  C   UNL     1       9.570   2.807  23.181  0.00  0.00    +0.000 A 
ATOM      9  C   UNL     1       9.412   1.664  22.247  0.00  0.00    +0.000 C 
ATOM     10  N   UNL     1       8.281   1.078  22.581  0.00  0.00    +0.000 N 
ATOM     11  C   UNL     1       7.594   0.263  21.607  0.00  0.00    +0.000 C 
ATOM     12  O   UNL     1       7.367   1.243  20.768  0.00  0.00    +0.000 OA
ATOM     13  C   UNL     1       7.331   1.647  23.281  0.00  0.00    +0.000 C 
BRANCH   2  17
ATOM     14  C   UNL     1       5.705   2.625  27.818  0.00  0.00    +0.000 A 
ATOM     15  C   UNL     1       6.753   1.667  27.259  0.00  0.00    +0.000 A 
ATOM     16  C   UNL     1       7.724   1.901  26.201  0.00  0.00    +0.000 A 
ATOM     17  C   UNL     1       7.419   3.182  25.454  0.00  0.00    +0.000 A 
ATOM     18  C   UNL     1       6.540   4.298  25.906  0.00  0.00    +0.000 A 
ATOM     19  C   UNL     1       5.504   3.798  27.004  0.00  0.00    +0.000 A 
ENDBRANCH   2  17
ENDBRANCH   1  11
BRANCH   1  20
ATOM     20  N   UNL     1       9.048  -1.801  22.113  0.00  0.00    +0.000 N 
ATOM     21  O   UNL     1      10.194  -1.578  22.091  0.00  0.00    +0.000 OA
BRANCH  20  22
ATOM     22  C   UNL     1       8.477  -2.527  22.952  0.00  0.00    +0.000 A 
ATOM     23  C   UNL     1       9.365  -2.454  24.218  0.00  0.00    +0.000 A 
ATOM     24  C   UNL     1       8.990  -1.873  25.556  0.00  0.00    +0.000 A 
ATOM     25  C   UNL     1       7.557  -1.495  25.397  0.00  0.00    +0.000 A 
ATOM     26  C   UNL     1       6.515  -1.545  24.455  0.00  0.00    +0.000 A 
ATOM     27  C   UNL     1       7.079  -2.517  23.367  0.00  0.00    +0.000 A 
BRANCH  27  28
ATOM     28  N   UNL     1       6.260  -3.625  23.188  0.00  0.00    +0.000 N 
ATOM     29  C   UNL     1       4.836  -3.418  23.119  0.00  0.00    +0.000 C 
ATOM     30  C   UNL     1       4.037  -4.696  22.992  0.00  0.00    +0.000 C 
ATOM     31  N   UNL     1       4.846  -5.797  23.461  0.00  0.00    +0.000 N 
ATOM     32  C   UNL     1       4.564  -6.481  24.585  0.00  0.00    +0.000 C 
ATOM     33  O   UNL     1       4.493  -7.707  24.526  0.00  0.00    +0.000 OA
ATOM     34  C   UNL     1       6.073  -6.060  22.738  0.00  0.00    +0.000 C 
ATOM     35  C   UNL     1       6.880  -4.784  22.594  0.00  0.00    +0.000 C 
BRANCH  32  36
ATOM     36  C   UNL     1       4.888  -5.792  25.885  0.00  0.00    +0.000 C 
ATOM     37 CL   UNL     1       6.640  -5.597  26.084  0.00  0.00    +0.000 Cl
ENDBRANCH  32  36
ENDBRANCH  27  28
ENDBRANCH  20  22
ENDBRANCH   1  20
TORSDOF 6
ENDMDL
