MODEL 1
REMARK VINA RESULT:      -8.9      0.000      0.000
REMARK  Name = 
REMARK  4 active torsions:
REMARK  status: ('A' for Active; 'I' for Inactive)
REMARK    1  A    between atoms: C_7  and  C_8
REMARK    2  A    between atoms: C_24  and  S_26
REMARK    3  A    between atoms: S_26  and  N_29
REMARK    4  A    between atoms: C_37  and  C_39
REMARK                            x       y       z     vdW  Elec       q    Type
REMARK                         _______ _______ _______ _____ _____    ______ ____
ROOT
ATOM      1  C   UNL     1       7.185   0.220  21.992  0.00  0.00    +0.000 C 
ATOM      2  C   UNL     1       7.445   1.207  23.128  0.00  0.00    +0.000 A 
ATOM      3  C   UNL     1       6.860   2.076  23.560  0.00  0.00    +0.000 A 
ATOM      4  C   UNL     1       7.151   3.534  23.765  0.00  0.00    +0.000 A 
ATOM      5  C   UNL     1       8.636   3.609  23.465  0.00  0.00    +0.000 A 
ATOM      6  C   UNL     1       9.699   2.749  23.172  0.00  0.00    +0.000 A 
ATOM      7  C   UNL     1       9.089   1.393  23.015  0.00  0.00    +0.000 A 
ATOM      8  C   UNL     1       9.812   0.195  23.546  0.00  0.00    +0.000 C 
ATOM      9  N   UNL     1       9.463  -0.814  22.804  0.00  0.00    +0.000 N 
ATOM     10  C   UNL     1       9.658  -2.168  22.976  0.00  0.00    +0.000 C 
ATOM     11  O   UNL     1      10.797  -2.360  22.868  0.00  0.00    +0.000 OA
ATOM     12  C   UNL     1       8.353  -0.740  22.051  0.00  0.00    +0.000 C 
ENDROOT
BRANCH   1  16
ATOM     13  C   UNL     1       5.769   0.744  18.127  0.00  0.00    +0.000 A 
ATOM     14  C   UNL     1       7.088   0.097  18.511  0.00  0.00    +0.000 A 
ATOM     15  C   UNL     1       7.891   0.320  19.705  0.00  0.00    +0.000 A 
ATOM     16  C   UNL     1       7.046   1.087  20.820  0.00  0.00    +0.000 A 
ATOM     17  C   UNL     1       5.836   1.849  20.561  0.00  0.00    +0.000 A 
ATOM     18  C   UNL     1       5.108   1.425  19.226  0.00  0.00    +0.000 A 
ENDBRANCH   1  16
BRANCH  10  19
ATOM     19  S   UNL     1       8.886  -2.766  24.396  0.00  0.00    +0.000 S 
ATOM     20  O   UNL     1       9.541  -4.072  24.599  0.00  0.00    +0.000 OA
ATOM     21  O   UNL     1       9.145  -1.873  25.533  0.00  0.00    +0.000 OA
BRANCH  19  22
ATOM     22  N   UNL     1       7.322  -2.996  24.345  0.00  0.00    +0.000 NA
ATOM     23  C   UNL     1       6.586  -2.502  25.439  0.00  0.00    +0.000 C 
ATOM     24  C   UNL     1       6.923  -3.359  26.658  0.00  0.00    +0.000 C 
ATOM     25  N   UNL     1       6.729  -4.749  26.276  0.00  0.00    +0.000 N 
ATOM     26  C   UNL     1       6.369  -5.587  27.311  0.00  0.00    +0.000 C 
ATOM     27  O   UNL     1       7.303  -5.973  28.037  0.00  0.00    +0.000 OA
ATOM     28  C   UNL     1       6.297  -5.121  24.947  0.00  0.00    +0.000 C 
ATOM     29  C   UNL     1       6.815  -4.210  23.878  0.00  0.00    +0.000 C 
BRANCH  26  30
ATOM     30  C   UNL     1       5.045  -5.270  27.960  0.00  0.00    +0.000 C 
ATOM     31 CL   UNL     1       5.225  -5.137  29.722  0.00  0.00    +0.000 Cl
ENDBRANCH  26  30
ENDBRANCH  19  22
ENDBRANCH  10  19
TORSDOF 4
ENDMDL
MODEL 2
REMARK VINA RESULT:      -8.7      1.949      2.649
REMARK  Name = 
REMARK  4 active torsions:
REMARK  status: ('A' for Active; 'I' for Inactive)
REMARK    1  A    between atoms: C_7  and  C_8
REMARK    2  A    between atoms: C_24  and  S_26
REMARK    3  A    between atoms: S_26  and  N_29
REMARK    4  A    between atoms: C_37  and  C_39
REMARK                            x       y       z     vdW  Elec       q    Type
REMARK                         _______ _______ _______ _____ _____    ______ ____
ROOT
ATOM      1  C   UNL     1       7.504   0.480  22.968  0.00  0.00    +0.000 C 
ATOM      2  C   UNL     1       8.202   1.443  23.927  0.00  0.00    +0.000 A 
ATOM      3  C   UNL     1       8.004   2.512  24.244  0.00  0.00    +0.000 A 
ATOM      4  C   UNL     1       8.807   3.779  24.212  0.00  0.00    +0.000 A 
ATOM      5  C   UNL     1      10.189   3.271  23.841  0.00  0.00    +0.000 A 
ATOM      6  C   UNL     1      10.848   2.054  23.639  0.00  0.00    +0.000 A 
ATOM      7  C   UNL     1       9.787   1.004  23.718  0.00  0.00    +0.000 A 
ATOM      8  C   UNL     1      10.089  -0.296  24.395  0.00  0.00    +0.000 C 
ATOM      9  N   UNL     1       9.339  -1.196  23.831  0.00  0.00    +0.000 N 
ATOM     10  C   UNL     1       9.059  -2.495  24.201  0.00  0.00    +0.000 C 
ATOM     11  O   UNL     1      10.042  -3.099  24.076  0.00  0.00    +0.000 OA
ATOM     12  C   UNL     1       8.260  -0.822  23.124  0.00  0.00    +0.000 C 
ENDROOT
BRANCH   1  16
ATOM     13  C   UNL     1       6.598   0.538  18.919  0.00  0.00    +0.000 A 
ATOM     14  C   UNL     1       7.810  -0.123  19.550  0.00  0.00    +0.000 A 
ATOM     15  C   UNL     1       8.482   0.218  20.796  0.00  0.00    +0.000 A 
ATOM     16  C   UNL     1       7.570   1.181  21.683  0.00  0.00    +0.000 A 
ATOM     17  C   UNL     1       6.459   1.967  21.175  0.00  0.00    +0.000 A 
ATOM     18  C   UNL     1       5.864   1.403  19.826  0.00  0.00    +0.000 A 
ENDBRANCH   1  16
BRANCH  10  19
ATOM     19  S   UNL     1       8.263  -2.585  25.728  0.00  0.00    +0.000 S 
ATOM     20  O   UNL     1       9.012  -3.648  26.423  0.00  0.00    +0.000 OA
ATOM     21  O   UNL     1       8.386  -1.310  26.444  0.00  0.00    +0.000 OA
BRANCH  19  22
ATOM     22  N   UNL     1       6.729  -2.969  25.739  0.00  0.00    +0.000 NA
ATOM     23  C   UNL     1       6.434  -4.343  25.829  0.00  0.00    +0.000 C 
ATOM     24  C   UNL     1       6.844  -4.998  24.510  0.00  0.00    +0.000 C 
ATOM     25  N   UNL     1       6.226  -4.235  23.438  0.00  0.00    +0.000 N 
ATOM     26  C   UNL     1       5.941  -4.963  22.301  0.00  0.00    +0.000 C 
ATOM     27  O   UNL     1       6.902  -5.158  21.535  0.00  0.00    +0.000 OA
ATOM     28  C   UNL     1       5.398  -3.080  23.703  0.00  0.00    +0.000 C 
ATOM     29  C   UNL     1       5.839  -2.296  24.900  0.00  0.00    +0.000 C 
BRANCH  26  30
ATOM     30  C   UNL     1       4.941  -6.076  22.488  0.00  0.00    +0.000 C 
ATOM     31 CL   UNL     1       3.382  -5.432  23.044  0.00  0.00    +0.000 Cl
ENDBRANCH  26  30
ENDBRANCH  19  22
ENDBRANCH  10  19
TORSDOF 4
ENDMDL
MODEL 3
REMARK VINA RESULT:      -8.1      3.422      6.920
REMARK  Name = 
REMARK  4 active torsions:
REMARK  status: ('A' for Active; 'I' for Inactive)
REMARK    1  A    between atoms: C_7  and  C_8
REMARK    2  A    between atoms: C_24  and  S_26
REMARK    3  A    between atoms: S_26  and  N_29
REMARK    4  A    between atoms: C_37  and  C_39
REMARK                            x       y       z     vdW  Elec       q    Type
REMARK                         _______ _______ _______ _____ _____    ______ ____
ROOT
ATOM      1  C   UNL     1       7.544  -3.002  23.702  0.00  0.00    +0.000 C 
ATOM      2  C   UNL     1       7.952  -3.241  25.155  0.00  0.00    +0.000 A 
ATOM      3  C   UNL     1       8.568  -4.037  25.674  0.00  0.00    +0.000 A 
ATOM      4  C   UNL     1       8.303  -5.001  26.793  0.00  0.00    +0.000 A 
ATOM      5  C   UNL     1       6.971  -4.509  27.329  0.00  0.00    +0.000 A 
ATOM      6  C   UNL     1       6.078  -3.451  27.131  0.00  0.00    +0.000 A 
ATOM      7  C   UNL     1       6.606  -2.694  25.954  0.00  0.00    +0.000 A 
ATOM      8  C   UNL     1       6.537  -1.200  25.950  0.00  0.00    +0.000 C 
ATOM      9  N   UNL     1       6.450  -0.831  24.706  0.00  0.00    +0.000 N 
ATOM     10  C   UNL     1       6.573   0.414  24.125  0.00  0.00    +0.000 C 
ATOM     11  O   UNL     1       5.660   1.039  24.474  0.00  0.00    +0.000 OA
ATOM     12  C   UNL     1       6.807  -1.680  23.729  0.00  0.00    +0.000 C 
ENDROOT
BRANCH   1  16
ATOM     13  C   UNL     1       6.276  -5.669  20.787  0.00  0.00    +0.000 A 
ATOM     14  C   UNL     1       5.588  -4.369  21.163  0.00  0.00    +0.000 A 
ATOM     15  C   UNL     1       5.620  -3.663  22.437  0.00  0.00    +0.000 A 
ATOM     16  C   UNL     1       6.799  -4.215  23.358  0.00  0.00    +0.000 A 
ATOM     17  C   UNL     1       7.455  -5.500  23.181  0.00  0.00    +0.000 A 
ATOM     18  C   UNL     1       7.317  -6.070  21.716  0.00  0.00    +0.000 A 
ENDBRANCH   1  16
BRANCH  10  19
ATOM     19  S   UNL     1       8.138   1.096  24.366  0.00  0.00    +0.000 S 
ATOM     20  O   UNL     1       7.832   2.409  24.966  0.00  0.00    +0.000 OA
ATOM     21  O   UNL     1       8.919   0.270  25.294  0.00  0.00    +0.000 OA
BRANCH  19  22
ATOM     22  N   UNL     1       9.045   1.332  23.091  0.00  0.00    +0.000 NA
ATOM     23  C   UNL     1       8.507   2.166  22.093  0.00  0.00    +0.000 C 
ATOM     24  C   UNL     1       7.344   1.424  21.437  0.00  0.00    +0.000 C 
ATOM     25  N   UNL     1       7.835   0.115  21.040  0.00  0.00    +0.000 N 
ATOM     26  C   UNL     1       7.205  -0.430  19.940  0.00  0.00    +0.000 C 
ATOM     27  O   UNL     1       6.108  -0.970  20.164  0.00  0.00    +0.000 OA
ATOM     28  C   UNL     1       9.201  -0.294  21.285  0.00  0.00    +0.000 C 
ATOM     29  C   UNL     1       9.770   0.268  22.551  0.00  0.00    +0.000 C 
BRANCH  26  30
ATOM     30  C   UNL     1       7.370   0.349  18.659  0.00  0.00    +0.000 C 
ATOM     31 CL   UNL     1       5.816   1.032  18.136  0.00  0.00    +0.000 Cl
ENDBRANCH  26  30
ENDBRANCH  19  22
ENDBRANCH  10  19
TORSDOF 4
ENDMDL
MODEL 4
REMARK VINA RESULT:      -8.1      2.405      3.102
REMARK  Name = 
REMARK  4 active torsions:
REMARK  status: ('A' for Active; 'I' for Inactive)
REMARK    1  A    between atoms: C_7  and  C_8
REMARK    2  A    between atoms: C_24  and  S_26
REMARK    3  A    between atoms: S_26  and  N_29
REMARK    4  A    between atoms: C_37  and  C_39
REMARK                            x       y       z     vdW  Elec       q    Type
REMARK                         _______ _______ _______ _____ _____    ______ ____
ROOT
ATOM      1  C   UNL     1       6.875   0.870  22.469  0.00  0.00    +0.000 C 
ATOM      2  C   UNL     1       6.558   2.092  23.329  0.00  0.00    +0.000 A 
ATOM      3  C   UNL     1       5.698   2.829  23.356  0.00  0.00    +0.000 A 
ATOM      4  C   UNL     1       5.595   4.321  23.231  0.00  0.00    +0.000 A 
ATOM      5  C   UNL     1       7.050   4.748  23.298  0.00  0.00    +0.000 A 
ATOM      6  C   UNL     1       8.308   4.180  23.517  0.00  0.00    +0.000 A 
ATOM      7  C   UNL     1       8.078   2.704  23.581  0.00  0.00    +0.000 A 
ATOM      8  C   UNL     1       8.841   1.884  24.573  0.00  0.00    +0.000 C 
ATOM      9  N   UNL     1       8.960   0.693  24.063  0.00  0.00    +0.000 N 
ATOM     10  C   UNL     1       9.375  -0.493  24.632  0.00  0.00    +0.000 C 
ATOM     11  O   UNL     1      10.506  -0.375  24.865  0.00  0.00    +0.000 OA
ATOM     12  C   UNL     1       8.145   0.306  23.069  0.00  0.00    +0.000 C 
ENDROOT
BRANCH   1  16
ATOM     13  C   UNL     1       6.416   0.262  18.390  0.00  0.00    +0.000 A 
ATOM     14  C   UNL     1       7.670  -0.025  19.197  0.00  0.00    +0.000 A 
ATOM     15  C   UNL     1       8.112   0.600  20.436  0.00  0.00    +0.000 A 
ATOM     16  C   UNL     1       6.921   1.419  21.112  0.00  0.00    +0.000 A 
ATOM     17  C   UNL     1       5.725   1.864  20.417  0.00  0.00    +0.000 A 
ATOM     18  C   UNL     1       5.417   1.029  19.113  0.00  0.00    +0.000 A 
ENDBRANCH   1  16
BRANCH  10  19
ATOM     19  S   UNL     1       8.350  -0.994  25.924  0.00  0.00    +0.000 S 
ATOM     20  O   UNL     1       9.176  -0.728  27.117  0.00  0.00    +0.000 OA
ATOM     21  O   UNL     1       7.126  -0.184  25.950  0.00  0.00    +0.000 OA
BRANCH  19  22
ATOM     22  N   UNL     1       7.896  -2.509  25.961  0.00  0.00    +0.000 NA
ATOM     23  C   UNL     1       8.619  -3.393  25.139  0.00  0.00    +0.000 C 
ATOM     24  C   UNL     1       8.279  -3.067  23.685  0.00  0.00    +0.000 C 
ATOM     25  N   UNL     1       6.830  -3.060  23.571  0.00  0.00    +0.000 N 
ATOM     26  C   UNL     1       6.347  -3.410  22.327  0.00  0.00    +0.000 C 
ATOM     27  O   UNL     1       6.365  -2.506  21.473  0.00  0.00    +0.000 OA
ATOM     28  C   UNL     1       5.975  -3.324  24.707  0.00  0.00    +0.000 C 
ATOM     29  C   UNL     1       6.536  -2.824  26.002  0.00  0.00    +0.000 C 
BRANCH  26  30
ATOM     30  C   UNL     1       6.672  -4.815  21.887  0.00  0.00    +0.000 C 
ATOM     31 CL   UNL     1       5.298  -5.900  22.186  0.00  0.00    +0.000 Cl
ENDBRANCH  26  30
ENDBRANCH  19  22
ENDBRANCH  10  19
TORSDOF 4
ENDMDL
MODEL 5
REMARK VINA RESULT:      -7.9      1.659      1.895
REMARK  Name = 
REMARK  4 active torsions:
REMARK  status: ('A' for Active; 'I' for Inactive)
REMARK    1  A    between atoms: C_7  and  C_8
REMARK    2  A    between atoms: C_24  and  S_26
REMARK    3  A    between atoms: S_26  and  N_29
REMARK    4  A    between atoms: C_37  and  C_39
REMARK                            x       y       z     vdW  Elec       q    Type
REMARK                         _______ _______ _______ _____ _____    ______ ____
ROOT
ATOM      1  C   UNL     1       7.228  -0.115  22.939  0.00  0.00    +0.000 C 
ATOM      2  C   UNL     1       7.890   0.673  24.068  0.00  0.00    +0.000 A 
ATOM      3  C   UNL     1       7.745   1.717  24.484  0.00  0.00    +0.000 A 
ATOM      4  C   UNL     1       8.648   2.900  24.677  0.00  0.00    +0.000 A 
ATOM      5  C   UNL     1      10.016   2.308  24.393  0.00  0.00    +0.000 A 
ATOM      6  C   UNL     1      10.593   1.064  24.121  0.00  0.00    +0.000 A 
ATOM      7  C   UNL     1       9.448   0.114  23.972  0.00  0.00    +0.000 A 
ATOM      8  C   UNL     1       9.566  -1.273  24.523  0.00  0.00    +0.000 C 
ATOM      9  N   UNL     1       8.813  -2.035  23.787  0.00  0.00    +0.000 N 
ATOM     10  C   UNL     1       8.389  -3.334  23.976  0.00  0.00    +0.000 C 
ATOM     11  O   UNL     1       9.328  -4.010  23.883  0.00  0.00    +0.000 OA
ATOM     12  C   UNL     1       7.853  -1.491  23.022  0.00  0.00    +0.000 C 
ENDROOT
BRANCH   1  16
ATOM     13  C   UNL     1       6.845   0.415  18.842  0.00  0.00    +0.000 A 
ATOM     14  C   UNL     1       7.932  -0.385  19.538  0.00  0.00    +0.000 A 
ATOM     15  C   UNL     1       8.457  -0.217  20.886  0.00  0.00    +0.000 A 
ATOM     16  C   UNL     1       7.492   0.708  21.756  0.00  0.00    +0.000 A 
ATOM     17  C   UNL     1       6.496   1.613  21.207  0.00  0.00    +0.000 A 
ATOM     18  C   UNL     1       6.049   1.228  19.743  0.00  0.00    +0.000 A 
ENDBRANCH   1  16
BRANCH  10  19
ATOM     19  S   UNL     1       7.425  -3.510  25.394  0.00  0.00    +0.000 S 
ATOM     20  O   UNL     1       8.021  -4.689  26.049  0.00  0.00    +0.000 OA
ATOM     21  O   UNL     1       7.550  -2.322  26.248  0.00  0.00    +0.000 OA
BRANCH  19  22
ATOM     22  N   UNL     1       5.877  -3.775  25.206  0.00  0.00    +0.000 NA
ATOM     23  C   UNL     1       5.056  -3.460  26.306  0.00  0.00    +0.000 C 
ATOM     24  C   UNL     1       5.348  -4.471  27.414  0.00  0.00    +0.000 C 
ATOM     25  N   UNL     1       5.231  -5.798  26.831  0.00  0.00    +0.000 N 
ATOM     26  C   UNL     1       4.839  -6.783  27.714  0.00  0.00    +0.000 C 
ATOM     27  O   UNL     1       5.739  -7.241  28.440  0.00  0.00    +0.000 OA
ATOM     28  C   UNL     1       4.898  -5.992  25.438  0.00  0.00    +0.000 C 
ATOM     29  C   UNL     1       5.447  -4.925  24.542  0.00  0.00    +0.000 C 
BRANCH  26  30
ATOM     30  C   UNL     1       3.465  -6.598  28.309  0.00  0.00    +0.000 C 
ATOM     31 CL   UNL     1       2.227  -7.338  27.273  0.00  0.00    +0.000 Cl
ENDBRANCH  26  30
ENDBRANCH  19  22
ENDBRANCH  10  19
TORSDOF 4
ENDMDL
MODEL 6
REMARK VINA RESULT:      -7.5      3.101      8.018
REMARK  Name = 
REMARK  4 active torsions:
REMARK  status: ('A' for Active; 'I' for Inactive)
REMARK    1  A    between atoms: C_7  and  C_8
REMARK    2  A    between atoms: C_24  and  S_26
REMARK    3  A    between atoms: S_26  and  N_29
REMARK    4  A    between atoms: C_37  and  C_39
REMARK                            x       y       z     vdW  Elec       q    Type
REMARK                         _______ _______ _______ _____ _____    ______ ____
ROOT
ATOM      1  C   UNL     1       5.469  -4.081  26.403  0.00  0.00    +0.000 C 
ATOM      2  C   UNL     1       4.543  -4.103  25.188  0.00  0.00    +0.000 A 
ATOM      3  C   UNL     1       3.479  -3.759  25.009  0.00  0.00    +0.000 A 
ATOM      4  C   UNL     1       2.226  -4.437  24.536  0.00  0.00    +0.000 A 
ATOM      5  C   UNL     1       2.750  -5.781  24.064  0.00  0.00    +0.000 A 
ATOM      6  C   UNL     1       3.973  -6.436  23.889  0.00  0.00    +0.000 A 
ATOM      7  C   UNL     1       5.005  -5.521  24.465  0.00  0.00    +0.000 A 
ATOM      8  C   UNL     1       6.327  -5.379  23.777  0.00  0.00    +0.000 C 
ATOM      9  N   UNL     1       7.199  -5.087  24.696  0.00  0.00    +0.000 N 
ATOM     10  C   UNL     1       8.502  -4.645  24.594  0.00  0.00    +0.000 C 
ATOM     11  O   UNL     1       9.120  -5.522  24.151  0.00  0.00    +0.000 OA
ATOM     12  C   UNL     1       6.788  -4.609  25.882  0.00  0.00    +0.000 C 
ENDROOT
BRANCH   1  16
ATOM     13  C   UNL     1       5.217  -5.529  30.284  0.00  0.00    +0.000 A 
ATOM     14  C   UNL     1       5.993  -6.166  29.145  0.00  0.00    +0.000 A 
ATOM     15  C   UNL     1       5.745  -6.068  27.714  0.00  0.00    +0.000 A 
ATOM     16  C   UNL     1       4.738  -4.872  27.396  0.00  0.00    +0.000 A 
ATOM     17  C   UNL     1       3.849  -4.259  28.369  0.00  0.00    +0.000 A 
ATOM     18  C   UNL     1       4.323  -4.466  29.860  0.00  0.00    +0.000 A 
ENDBRANCH   1  16
BRANCH  10  19
ATOM     19  S   UNL     1       8.615  -3.118  23.802  0.00  0.00    +0.000 S 
ATOM     20  O   UNL     1      10.070  -2.880  23.761  0.00  0.00    +0.000 OA
ATOM     21  O   UNL     1       8.064  -3.204  22.445  0.00  0.00    +0.000 OA
BRANCH  19  22
ATOM     22  N   UNL     1       7.927  -1.874  24.496  0.00  0.00    +0.000 NA
ATOM     23  C   UNL     1       7.045  -1.125  23.693  0.00  0.00    +0.000 C 
ATOM     24  C   UNL     1       7.876  -0.394  22.639  0.00  0.00    +0.000 C 
ATOM     25  N   UNL     1       8.933   0.317  23.340  0.00  0.00    +0.000 N 
ATOM     26  C   UNL     1       9.365   1.469  22.716  0.00  0.00    +0.000 C 
ATOM     27  O   UNL     1      10.170   1.303  21.782  0.00  0.00    +0.000 OA
ATOM     28  C   UNL     1       9.069   0.257  24.778  0.00  0.00    +0.000 C 
ATOM     29  C   UNL     1       8.667  -1.063  25.358  0.00  0.00    +0.000 C 
BRANCH  26  30
ATOM     30  C   UNL     1       8.323   2.551  22.576  0.00  0.00    +0.000 C 
ATOM     31 CL   UNL     1       8.797   4.001  23.485  0.00  0.00    +0.000 Cl
ENDBRANCH  26  30
ENDBRANCH  19  22
ENDBRANCH  10  19
TORSDOF 4
ENDMDL
MODEL 7
REMARK VINA RESULT:      -7.3      3.455      7.415
REMARK  Name = 
REMARK  4 active torsions:
REMARK  status: ('A' for Active; 'I' for Inactive)
REMARK    1  A    between atoms: C_7  and  C_8
REMARK    2  A    between atoms: C_24  and  S_26
REMARK    3  A    between atoms: S_26  and  N_29
REMARK    4  A    between atoms: C_37  and  C_39
REMARK                            x       y       z     vdW  Elec       q    Type
REMARK                         _______ _______ _______ _____ _____    ______ ____
ROOT
ATOM      1  C   UNL     1       5.168  -4.311  24.379  0.00  0.00    +0.000 C 
ATOM      2  C   UNL     1       5.964  -4.249  23.077  0.00  0.00    +0.000 A 
ATOM      3  C   UNL     1       5.674  -4.184  21.985  0.00  0.00    +0.000 A 
ATOM      4  C   UNL     1       5.957  -5.025  20.774  0.00  0.00    +0.000 A 
ATOM      5  C   UNL     1       7.023  -5.975  21.289  0.00  0.00    +0.000 A 
ATOM      6  C   UNL     1       7.787  -6.181  22.442  0.00  0.00    +0.000 A 
ATOM      7  C   UNL     1       7.259  -5.214  23.453  0.00  0.00    +0.000 A 
ATOM      8  C   UNL     1       8.213  -4.516  24.371  0.00  0.00    +0.000 C 
ATOM      9  N   UNL     1       7.562  -4.263  25.467  0.00  0.00    +0.000 N 
ATOM     10  C   UNL     1       7.886  -3.461  26.542  0.00  0.00    +0.000 C 
ATOM     11  O   UNL     1       8.783  -3.965  27.078  0.00  0.00    +0.000 OA
ATOM     12  C   UNL     1       6.219  -4.276  25.467  0.00  0.00    +0.000 C 
ENDROOT
BRANCH   1  16
ATOM     13  C   UNL     1       2.121  -6.745  25.800  0.00  0.00    +0.000 A 
ATOM     14  C   UNL     1       3.572  -6.784  26.246  0.00  0.00    +0.000 A 
ATOM     15  C   UNL     1       4.759  -6.389  25.500  0.00  0.00    +0.000 A 
ATOM     16  C   UNL     1       4.361  -5.524  24.221  0.00  0.00    +0.000 A 
ATOM     17  C   UNL     1       3.038  -5.498  23.619  0.00  0.00    +0.000 A 
ATOM     18  C   UNL     1       1.895  -5.938  24.614  0.00  0.00    +0.000 A 
ENDBRANCH   1  16
BRANCH  10  19
ATOM     19  S   UNL     1       8.059  -1.805  26.095  0.00  0.00    +0.000 S 
ATOM     20  O   UNL     1       6.701  -1.268  26.301  0.00  0.00    +0.000 OA
ATOM     21  O   UNL     1       9.022  -1.135  26.978  0.00  0.00    +0.000 OA
BRANCH  19  22
ATOM     22  N   UNL     1       8.501  -1.483  24.611  0.00  0.00    +0.000 NA
ATOM     23  C   UNL     1       9.775  -0.905  24.455  0.00  0.00    +0.000 C 
ATOM     24  C   UNL     1       9.716   0.518  25.010  0.00  0.00    +0.000 C 
ATOM     25  N   UNL     1       8.584   1.180  24.383  0.00  0.00    +0.000 N 
ATOM     26  C   UNL     1       8.718   2.546  24.245  0.00  0.00    +0.000 C 
ATOM     27  O   UNL     1       8.474   3.214  25.266  0.00  0.00    +0.000 OA
ATOM     28  C   UNL     1       7.739   0.502  23.426  0.00  0.00    +0.000 C 
ATOM     29  C   UNL     1       7.573  -0.959  23.710  0.00  0.00    +0.000 C 
BRANCH  26  30
ATOM     30  C   UNL     1       9.852   2.991  23.355  0.00  0.00    +0.000 C 
ATOM     31 CL   UNL     1      10.323   4.662  23.728  0.00  0.00    +0.000 Cl
ENDBRANCH  26  30
ENDBRANCH  19  22
ENDBRANCH  10  19
TORSDOF 4
ENDMDL
MODEL 8
REMARK VINA RESULT:      -7.3      2.726      3.575
REMARK  Name = 
REMARK  4 active torsions:
REMARK  status: ('A' for Active; 'I' for Inactive)
REMARK    1  A    between atoms: C_7  and  C_8
REMARK    2  A    between atoms: C_24  and  S_26
REMARK    3  A    between atoms: S_26  and  N_29
REMARK    4  A    between atoms: C_37  and  C_39
REMARK                            x       y       z     vdW  Elec       q    Type
REMARK                         _______ _______ _______ _____ _____    ______ ____
ROOT
ATOM      1  C   UNL     1       6.516  -1.193  22.702  0.00  0.00    +0.000 C 
ATOM      2  C   UNL     1       7.466  -1.381  23.883  0.00  0.00    +0.000 A 
ATOM      3  C   UNL     1       7.771  -0.724  24.754  0.00  0.00    +0.000 A 
ATOM      4  C   UNL     1       9.084  -0.202  25.262  0.00  0.00    +0.000 A 
ATOM      5  C   UNL     1      10.082  -0.992  24.435  0.00  0.00    +0.000 A 
ATOM      6  C   UNL     1      10.091  -2.029  23.497  0.00  0.00    +0.000 A 
ATOM      7  C   UNL     1       8.654  -2.307  23.190  0.00  0.00    +0.000 A 
ATOM      8  C   UNL     1       8.203  -3.721  22.998  0.00  0.00    +0.000 C 
ATOM      9  N   UNL     1       7.188  -3.683  22.185  0.00  0.00    +0.000 N 
ATOM     10  C   UNL     1       6.272  -4.656  21.843  0.00  0.00    +0.000 C 
ATOM     11  O   UNL     1       6.848  -5.463  21.240  0.00  0.00    +0.000 OA
ATOM     12  C   UNL     1       6.522  -2.532  21.996  0.00  0.00    +0.000 C 
ENDROOT
BRANCH   1  16
ATOM     13  C   UNL     1       6.076   1.734  19.794  0.00  0.00    +0.000 A 
ATOM     14  C   UNL     1       6.592   0.324  19.566  0.00  0.00    +0.000 A 
ATOM     15  C   UNL     1       7.257  -0.560  20.513  0.00  0.00    +0.000 A 
ATOM     16  C   UNL     1       7.072  -0.030  22.006  0.00  0.00    +0.000 A 
ATOM     17  C   UNL     1       6.704   1.330  22.361  0.00  0.00    +0.000 A 
ATOM     18  C   UNL     1       5.970   2.100  21.195  0.00  0.00    +0.000 A 
ENDBRANCH   1  16
BRANCH  10  19
ATOM     19  S   UNL     1       5.348  -5.191  23.198  0.00  0.00    +0.000 S 
ATOM     20  O   UNL     1       3.969  -4.840  22.810  0.00  0.00    +0.000 OA
ATOM     21  O   UNL     1       5.486  -6.642  23.370  0.00  0.00    +0.000 OA
BRANCH  19  22
ATOM     22  N   UNL     1       5.653  -4.534  24.604  0.00  0.00    +0.000 NA
ATOM     23  C   UNL     1       6.199  -5.387  25.582  0.00  0.00    +0.000 C 
ATOM     24  C   UNL     1       5.114  -6.378  26.000  0.00  0.00    +0.000 C 
ATOM     25  N   UNL     1       3.934  -5.604  26.351  0.00  0.00    +0.000 N 
ATOM     26  C   UNL     1       3.121  -6.189  27.300  0.00  0.00    +0.000 C 
ATOM     27  O   UNL     1       2.352  -7.070  26.877  0.00  0.00    +0.000 OA
ATOM     28  C   UNL     1       3.917  -4.160  26.270  0.00  0.00    +0.000 C 
ATOM     29  C   UNL     1       4.751  -3.619  25.151  0.00  0.00    +0.000 C 
BRANCH  26  30
ATOM     30  C   UNL     1       3.759  -6.389  28.653  0.00  0.00    +0.000 C 
ATOM     31 CL   UNL     1       3.288  -5.087  29.766  0.00  0.00    +0.000 Cl
ENDBRANCH  26  30
ENDBRANCH  19  22
ENDBRANCH  10  19
TORSDOF 4
ENDMDL
MODEL 9
REMARK VINA RESULT:      -7.3      2.464      3.878
REMARK  Name = 
REMARK  4 active torsions:
REMARK  status: ('A' for Active; 'I' for Inactive)
REMARK    1  A    between atoms: C_7  and  C_8
REMARK    2  A    between atoms: C_24  and  S_26
REMARK    3  A    between atoms: S_26  and  N_29
REMARK    4  A    between atoms: C_37  and  C_39
REMARK                            x       y       z     vdW  Elec       q    Type
REMARK                         _______ _______ _______ _____ _____    ______ ____
ROOT
ATOM      1  C   UNL     1       7.825   0.126  24.890  0.00  0.00    +0.000 C 
ATOM      2  C   UNL     1       9.198   0.330  24.251  0.00  0.00    +0.000 A 
ATOM      3  C   UNL     1      10.090   0.980  24.504  0.00  0.00    +0.000 A 
ATOM      4  C   UNL     1      10.863   2.032  23.763  0.00  0.00    +0.000 A 
ATOM      5  C   UNL     1      10.314   1.898  22.355  0.00  0.00    +0.000 A 
ATOM      6  C   UNL     1       9.441   1.076  21.635  0.00  0.00    +0.000 A 
ATOM      7  C   UNL     1       8.826   0.160  22.644  0.00  0.00    +0.000 A 
ATOM      8  C   UNL     1       8.588  -1.274  22.286  0.00  0.00    +0.000 C 
ATOM      9  N   UNL     1       7.566  -1.670  22.985  0.00  0.00    +0.000 N 
ATOM     10  C   UNL     1       7.061  -2.934  23.206  0.00  0.00    +0.000 C 
ATOM     11  O   UNL     1       6.634  -3.306  22.193  0.00  0.00    +0.000 OA
ATOM     12  C   UNL     1       7.189  -0.978  24.073  0.00  0.00    +0.000 C 
ENDROOT
BRANCH   1  16
ATOM     13  C   UNL     1       5.087   2.837  26.431  0.00  0.00    +0.000 A 
ATOM     14  C   UNL     1       4.798   1.781  25.379  0.00  0.00    +0.000 A 
ATOM     15  C   UNL     1       5.719   1.173  24.430  0.00  0.00    +0.000 A 
ATOM     16  C   UNL     1       7.232   1.465  24.844  0.00  0.00    +0.000 A 
ATOM     17  C   UNL     1       7.652   2.527  25.743  0.00  0.00    +0.000 A 
ATOM     18  C   UNL     1       6.501   3.019  26.704  0.00  0.00    +0.000 A 
ENDBRANCH   1  16
BRANCH  10  19
ATOM     19  S   UNL     1       8.189  -3.959  24.012  0.00  0.00    +0.000 S 
ATOM     20  O   UNL     1       8.181  -5.173  23.176  0.00  0.00    +0.000 OA
ATOM     21  O   UNL     1       9.522  -3.343  24.023  0.00  0.00    +0.000 OA
BRANCH  19  22
ATOM     22  N   UNL     1       7.869  -4.379  25.503  0.00  0.00    +0.000 NA
ATOM     23  C   UNL     1       6.903  -5.389  25.669  0.00  0.00    +0.000 C 
ATOM     24  C   UNL     1       5.544  -4.808  25.278  0.00  0.00    +0.000 C 
ATOM     25  N   UNL     1       5.373  -3.571  26.021  0.00  0.00    +0.000 N 
ATOM     26  C   UNL     1       4.063  -3.244  26.304  0.00  0.00    +0.000 C 
ATOM     27  O   UNL     1       3.432  -2.709  25.375  0.00  0.00    +0.000 OA
ATOM     28  C   UNL     1       6.384  -3.083  26.933  0.00  0.00    +0.000 C 
ATOM     29  C   UNL     1       7.780  -3.401  26.495  0.00  0.00    +0.000 C 
BRANCH  26  30
ATOM     30  C   UNL     1       3.335  -4.225  27.189  0.00  0.00    +0.000 C 
ATOM     31 CL   UNL     1       3.454  -3.739  28.894  0.00  0.00    +0.000 Cl
ENDBRANCH  26  30
ENDBRANCH  19  22
ENDBRANCH  10  19
TORSDOF 4
ENDMDL
