MODEL 1
REMARK VINA RESULT:      -8.9      0.000      0.000
REMARK  Name = 
REMARK  5 active torsions:
REMARK  status: ('A' for Active; 'I' for Inactive)
REMARK    1  A    between atoms: C_11  and  N_13
REMARK    2  A    between atoms: N_13  and  C_47
REMARK    3  A    between atoms: N_23  and  S_24
REMARK    4  A    between atoms: S_24  and  C_27
REMARK    5  A    between atoms: C_32  and  C_33
REMARK                            x       y       z     vdW  Elec       q    Type
REMARK                         _______ _______ _______ _____ _____    ______ ____
ROOT
ATOM      1  N   UNL     1       7.942   0.698  21.546  0.00  0.00    +0.000 N 
ATOM      2  C   UNL     1       8.567  -0.493  21.754  0.00  0.00    +0.000 C 
ATOM      3  O   UNL     1       9.272  -0.871  20.783  0.00  0.00    +0.000 OA
ATOM      4  N   UNL     1       8.936  -0.878  22.977  0.00  0.00    +0.000 N 
ATOM      5  C   UNL     1      10.179  -1.577  23.254  0.00  0.00    +0.000 C 
ATOM      6  C   UNL     1      10.002  -2.732  24.257  0.00  0.00    +0.000 C 
ATOM      7  N   UNL     1       8.680  -3.010  24.499  0.00  0.00    +0.000 NA
ATOM      8  C   UNL     1       7.930  -1.964  24.973  0.00  0.00    +0.000 C 
ATOM      9  C   UNL     1       8.033  -0.705  24.117  0.00  0.00    +0.000 C 
ENDROOT
BRANCH   1  16
ATOM     10  C   UNL     1       8.044   2.373  23.366  0.00  0.00    +0.000 C 
ATOM     11  C   UNL     1       8.920   2.754  24.450  0.00  0.00    +0.000 C 
ATOM     12  S   UNL     1      10.585   2.374  23.708  0.00  0.00    +0.000 S 
ATOM     13  O   UNL     1      11.096   1.264  24.363  0.00  0.00    +0.000 OA
ATOM     14  O   UNL     1      11.303   3.583  23.676  0.00  0.00    +0.000 OA
ATOM     15  C   UNL     1      10.089   1.922  22.014  0.00  0.00    +0.000 C 
ATOM     16  C   UNL     1       8.603   1.964  22.015  0.00  0.00    +0.000 C 
ENDBRANCH   1  16
BRANCH   1  17
ATOM     17  C   UNL     1       7.569   0.750  20.299  0.00  0.00    +0.000 A 
ATOM     18  C   UNL     1       6.447   1.785  20.386  0.00  0.00    +0.000 A 
ATOM     19  C   UNL     1       5.104   1.694  19.726  0.00  0.00    +0.000 A 
ATOM     20  C   UNL     1       5.127   0.430  18.933  0.00  0.00    +0.000 A 
ATOM     21  C   UNL     1       5.970  -0.666  18.745  0.00  0.00    +0.000 A 
ATOM     22  C   UNL     1       7.360  -0.238  19.282  0.00  0.00    +0.000 A 
ENDBRANCH   1  17
BRANCH   7  23
ATOM     23  S   UNL     1       8.152  -4.491  24.364  0.00  0.00    +0.000 S 
ATOM     24  O   UNL     1       9.317  -5.423  24.361  0.00  0.00    +0.000 OA
ATOM     25  O   UNL     1       7.197  -4.852  25.354  0.00  0.00    +0.000 OA
BRANCH  23  26
ATOM     26  C   UNL     1       7.458  -4.674  22.700  0.00  0.00    +0.000 A 
ATOM     27  C   UNL     1       6.637  -5.911  22.823  0.00  0.00    +0.000 A 
ATOM     28  C   UNL     1       5.157  -5.990  22.927  0.00  0.00    +0.000 A 
ATOM     29  C   UNL     1       4.516  -4.604  22.846  0.00  0.00    +0.000 A 
ATOM     30  C   UNL     1       3.520  -4.376  24.079  0.00  0.00    +0.000 C 
ATOM     31  C   UNL     1       5.154  -3.431  22.207  0.00  0.00    +0.000 A 
ATOM     32  C   UNL     1       6.708  -3.491  22.239  0.00  0.00    +0.000 A 
ENDBRANCH  23  26
ENDBRANCH   7  23
TORSDOF 4
ENDMDL
MODEL 2
REMARK VINA RESULT:      -8.5      1.048      1.734
REMARK  Name = 
REMARK  5 active torsions:
REMARK  status: ('A' for Active; 'I' for Inactive)
REMARK    1  A    between atoms: C_11  and  N_13
REMARK    2  A    between atoms: N_13  and  C_47
REMARK    3  A    between atoms: N_23  and  S_24
REMARK    4  A    between atoms: S_24  and  C_27
REMARK    5  A    between atoms: C_32  and  C_33
REMARK                            x       y       z     vdW  Elec       q    Type
REMARK                         _______ _______ _______ _____ _____    ______ ____
ROOT
ATOM      1  N   UNL     1       7.679   1.006  21.564  0.00  0.00    +0.000 N 
ATOM      2  C   UNL     1       7.981  -0.214  22.087  0.00  0.00    +0.000 C 
ATOM      3  O   UNL     1       8.656  -0.942  21.315  0.00  0.00    +0.000 OA
ATOM      4  N   UNL     1       8.142  -0.383  23.400  0.00  0.00    +0.000 N 
ATOM      5  C   UNL     1       9.154  -1.252  23.976  0.00  0.00    +0.000 C 
ATOM      6  C   UNL     1       8.622  -2.087  25.156  0.00  0.00    +0.000 C 
ATOM      7  N   UNL     1       7.256  -2.012  25.269  0.00  0.00    +0.000 NA
ATOM      8  C   UNL     1       6.740  -0.750  25.419  0.00  0.00    +0.000 C 
ATOM      9  C   UNL     1       7.213   0.231  24.351  0.00  0.00    +0.000 C 
ENDROOT
BRANCH   1  16
ATOM     10  C   UNL     1       8.035   2.972  23.025  0.00  0.00    +0.000 C 
ATOM     11  C   UNL     1       8.894   3.381  24.113  0.00  0.00    +0.000 C 
ATOM     12  S   UNL     1      10.474   2.506  23.663  0.00  0.00    +0.000 S 
ATOM     13  O   UNL     1      10.663   1.480  24.576  0.00  0.00    +0.000 OA
ATOM     14  O   UNL     1      11.454   3.498  23.485  0.00  0.00    +0.000 OA
ATOM     15  C   UNL     1      10.012   1.816  22.040  0.00  0.00    +0.000 C 
ATOM     16  C   UNL     1       8.580   2.172  21.855  0.00  0.00    +0.000 C 
ENDBRANCH   1  16
BRANCH   1  17
ATOM     17  C   UNL     1       7.437   0.855  20.293  0.00  0.00    +0.000 A 
ATOM     18  C   UNL     1       6.265   1.819  20.115  0.00  0.00    +0.000 A 
ATOM     19  C   UNL     1       5.004   1.552  19.348  0.00  0.00    +0.000 A 
ATOM     20  C   UNL     1       5.170   0.191  18.760  0.00  0.00    +0.000 A 
ATOM     21  C   UNL     1       6.078  -0.867  18.820  0.00  0.00    +0.000 A 
ATOM     22  C   UNL     1       7.383  -0.280  19.420  0.00  0.00    +0.000 A 
ENDBRANCH   1  17
BRANCH   7  23
ATOM     23  S   UNL     1       6.402  -3.337  25.361  0.00  0.00    +0.000 S 
ATOM     24  O   UNL     1       7.238  -4.484  24.901  0.00  0.00    +0.000 OA
ATOM     25  O   UNL     1       5.852  -3.576  26.650  0.00  0.00    +0.000 OA
BRANCH  23  26
ATOM     26  C   UNL     1       5.096  -3.234  24.111  0.00  0.00    +0.000 A 
ATOM     27  C   UNL     1       5.856  -2.921  22.869  0.00  0.00    +0.000 A 
ATOM     28  C   UNL     1       6.177  -3.859  21.762  0.00  0.00    +0.000 A 
ATOM     29  C   UNL     1       5.580  -5.244  22.012  0.00  0.00    +0.000 A 
ATOM     30  C   UNL     1       6.707  -6.374  21.864  0.00  0.00    +0.000 C 
ATOM     31  C   UNL     1       4.413  -5.499  22.886  0.00  0.00    +0.000 A 
ATOM     32  C   UNL     1       4.265  -4.449  24.023  0.00  0.00    +0.000 A 
ENDBRANCH  23  26
ENDBRANCH   7  23
TORSDOF 4
ENDMDL
MODEL 3
REMARK VINA RESULT:      -8.4      2.632      7.007
REMARK  Name = 
REMARK  5 active torsions:
REMARK  status: ('A' for Active; 'I' for Inactive)
REMARK    1  A    between atoms: C_11  and  N_13
REMARK    2  A    between atoms: N_13  and  C_47
REMARK    3  A    between atoms: N_23  and  S_24
REMARK    4  A    between atoms: S_24  and  C_27
REMARK    5  A    between atoms: C_32  and  C_33
REMARK                            x       y       z     vdW  Elec       q    Type
REMARK                         _______ _______ _______ _____ _____    ______ ____
ROOT
ATOM      1  N   UNL     1       6.973  -4.041  25.509  0.00  0.00    +0.000 N 
ATOM      2  C   UNL     1       6.455  -2.934  24.909  0.00  0.00    +0.000 C 
ATOM      3  O   UNL     1       5.275  -3.087  24.499  0.00  0.00    +0.000 OA
ATOM      4  N   UNL     1       6.833  -1.709  25.274  0.00  0.00    +0.000 N 
ATOM      5  C   UNL     1       5.919  -0.583  25.361  0.00  0.00    +0.000 C 
ATOM      6  C   UNL     1       6.514   0.715  24.783  0.00  0.00    +0.000 C 
ATOM      7  N   UNL     1       7.682   0.489  24.099  0.00  0.00    +0.000 NA
ATOM      8  C   UNL     1       8.684  -0.114  24.816  0.00  0.00    +0.000 C 
ATOM      9  C   UNL     1       8.247  -1.403  25.507  0.00  0.00    +0.000 C 
ENDROOT
BRANCH   1  16
ATOM     10  C   UNL     1       5.457  -3.858  27.457  0.00  0.00    +0.000 C 
ATOM     11  C   UNL     1       4.753  -4.723  28.377  0.00  0.00    +0.000 C 
ATOM     12  S   UNL     1       5.947  -6.146  28.508  0.00  0.00    +0.000 S 
ATOM     13  O   UNL     1       5.384  -7.231  27.855  0.00  0.00    +0.000 OA
ATOM     14  O   UNL     1       6.326  -6.237  29.858  0.00  0.00    +0.000 OA
ATOM     15  C   UNL     1       7.341  -5.490  27.533  0.00  0.00    +0.000 C 
ATOM     16  C   UNL     1       6.868  -4.183  27.001  0.00  0.00    +0.000 C 
ENDBRANCH   1  16
BRANCH   1  17
ATOM     17  C   UNL     1       6.544  -5.090  24.867  0.00  0.00    +0.000 A 
ATOM     18  C   UNL     1       7.592  -5.187  23.758  0.00  0.00    +0.000 A 
ATOM     19  C   UNL     1       7.325  -5.446  22.305  0.00  0.00    +0.000 A 
ATOM     20  C   UNL     1       5.851  -5.647  22.194  0.00  0.00    +0.000 A 
ATOM     21  C   UNL     1       4.722  -5.555  23.011  0.00  0.00    +0.000 A 
ATOM     22  C   UNL     1       5.246  -5.551  24.470  0.00  0.00    +0.000 A 
ENDBRANCH   1  17
BRANCH   7  23
ATOM     23  S   UNL     1       7.852   1.043  22.630  0.00  0.00    +0.000 S 
ATOM     24  O   UNL     1       6.530   1.533  22.142  0.00  0.00    +0.000 OA
ATOM     25  O   UNL     1       8.856   2.041  22.507  0.00  0.00    +0.000 OA
BRANCH  23  26
ATOM     26  C   UNL     1       8.207  -0.367  21.551  0.00  0.00    +0.000 A 
ATOM     27  C   UNL     1       6.932  -1.136  21.588  0.00  0.00    +0.000 A 
ATOM     28  C   UNL     1       5.898  -1.196  20.520  0.00  0.00    +0.000 A 
ATOM     29  C   UNL     1       6.314  -0.384  19.294  0.00  0.00    +0.000 A 
ATOM     30  C   UNL     1       5.149   0.636  18.878  0.00  0.00    +0.000 C 
ATOM     31  C   UNL     1       7.716  -0.055  18.952  0.00  0.00    +0.000 A 
ATOM     32  C   UNL     1       8.644   0.020  20.197  0.00  0.00    +0.000 A 
ENDBRANCH  23  26
ENDBRANCH   7  23
TORSDOF 4
ENDMDL
MODEL 4
REMARK VINA RESULT:      -8.3      1.871      2.802
REMARK  Name = 
REMARK  5 active torsions:
REMARK  status: ('A' for Active; 'I' for Inactive)
REMARK    1  A    between atoms: C_11  and  N_13
REMARK    2  A    between atoms: N_13  and  C_47
REMARK    3  A    between atoms: N_23  and  S_24
REMARK    4  A    between atoms: S_24  and  C_27
REMARK    5  A    between atoms: C_32  and  C_33
REMARK                            x       y       z     vdW  Elec       q    Type
REMARK                         _______ _______ _______ _____ _____    ______ ____
ROOT
ATOM      1  N   UNL     1       8.296   1.284  23.564  0.00  0.00    +0.000 N 
ATOM      2  C   UNL     1       8.424  -0.030  23.894  0.00  0.00    +0.000 C 
ATOM      3  O   UNL     1       9.322  -0.629  23.247  0.00  0.00    +0.000 OA
ATOM      4  N   UNL     1       8.149  -0.465  25.124  0.00  0.00    +0.000 N 
ATOM      5  C   UNL     1       8.927  -1.487  25.803  0.00  0.00    +0.000 C 
ATOM      6  C   UNL     1       8.048  -2.507  26.551  0.00  0.00    +0.000 C 
ATOM      7  N   UNL     1       6.719  -2.379  26.231  0.00  0.00    +0.000 NA
ATOM      8  C   UNL     1       6.169  -1.144  26.464  0.00  0.00    +0.000 C 
ATOM      9  C   UNL     1       6.953   0.001  25.831  0.00  0.00    +0.000 C 
ENDROOT
BRANCH   1  16
ATOM     10  C   UNL     1      10.286   2.754  23.616  0.00  0.00    +0.000 C 
ATOM     11  C   UNL     1      10.613   4.154  23.466  0.00  0.00    +0.000 C 
ATOM     12  S   UNL     1       9.094   4.950  24.192  0.00  0.00    +0.000 S 
ATOM     13  O   UNL     1       8.384   5.530  23.153  0.00  0.00    +0.000 OA
ATOM     14  O   UNL     1       9.521   5.720  25.288  0.00  0.00    +0.000 OA
ATOM     15  C   UNL     1       8.214   3.474  24.799  0.00  0.00    +0.000 C 
ATOM     16  C   UNL     1       9.039   2.317  24.363  0.00  0.00    +0.000 C 
ENDBRANCH   1  16
BRANCH   1  17
ATOM     17  C   UNL     1       8.484   1.402  22.281  0.00  0.00    +0.000 A 
ATOM     18  C   UNL     1       7.179   2.083  21.868  0.00  0.00    +0.000 A 
ATOM     19  C   UNL     1       6.330   1.730  20.683  0.00  0.00    +0.000 A 
ATOM     20  C   UNL     1       7.056   0.634  19.977  0.00  0.00    +0.000 A 
ATOM     21  C   UNL     1       8.182  -0.166  20.176  0.00  0.00    +0.000 A 
ATOM     22  C   UNL     1       9.023   0.538  21.272  0.00  0.00    +0.000 A 
ENDBRANCH   1  17
BRANCH   7  23
ATOM     23  S   UNL     1       5.897  -3.645  25.770  0.00  0.00    +0.000 S 
ATOM     24  O   UNL     1       6.850  -4.721  25.369  0.00  0.00    +0.000 OA
ATOM     25  O   UNL     1       4.964  -4.107  26.738  0.00  0.00    +0.000 OA
BRANCH  23  26
ATOM     26  C   UNL     1       5.062  -3.219  24.220  0.00  0.00    +0.000 A 
ATOM     27  C   UNL     1       6.188  -2.771  23.354  0.00  0.00    +0.000 A 
ATOM     28  C   UNL     1       6.816  -3.536  22.245  0.00  0.00    +0.000 A 
ATOM     29  C   UNL     1       6.127  -4.884  22.036  0.00  0.00    +0.000 A 
ATOM     30  C   UNL     1       7.206  -6.069  22.034  0.00  0.00    +0.000 C 
ATOM     31  C   UNL     1       4.735  -5.178  22.444  0.00  0.00    +0.000 A 
ATOM     32  C   UNL     1       4.264  -4.324  23.655  0.00  0.00    +0.000 A 
ENDBRANCH  23  26
ENDBRANCH   7  23
TORSDOF 4
ENDMDL
MODEL 5
REMARK VINA RESULT:      -8.2      1.293      1.751
REMARK  Name = 
REMARK  5 active torsions:
REMARK  status: ('A' for Active; 'I' for Inactive)
REMARK    1  A    between atoms: C_11  and  N_13
REMARK    2  A    between atoms: N_13  and  C_47
REMARK    3  A    between atoms: N_23  and  S_24
REMARK    4  A    between atoms: S_24  and  C_27
REMARK    5  A    between atoms: C_32  and  C_33
REMARK                            x       y       z     vdW  Elec       q    Type
REMARK                         _______ _______ _______ _____ _____    ______ ____
ROOT
ATOM      1  N   UNL     1       7.839   0.870  21.448  0.00  0.00    +0.000 N 
ATOM      2  C   UNL     1       8.328  -0.379  21.680  0.00  0.00    +0.000 C 
ATOM      3  O   UNL     1       9.018  -0.836  20.732  0.00  0.00    +0.000 OA
ATOM      4  N   UNL     1       8.619  -0.789  22.915  0.00  0.00    +0.000 N 
ATOM      5  C   UNL     1       9.773  -1.613  23.233  0.00  0.00    +0.000 C 
ATOM      6  C   UNL     1       9.447  -2.735  24.236  0.00  0.00    +0.000 C 
ATOM      7  N   UNL     1       8.096  -2.870  24.441  0.00  0.00    +0.000 NA
ATOM      8  C   UNL     1       7.448  -1.747  24.887  0.00  0.00    +0.000 C 
ATOM      9  C   UNL     1       7.707  -0.513  24.027  0.00  0.00    +0.000 C 
ENDROOT
BRANCH   1  16
ATOM     10  C   UNL     1       8.036   2.567  23.238  0.00  0.00    +0.000 C 
ATOM     11  C   UNL     1       8.891   2.872  24.363  0.00  0.00    +0.000 C 
ATOM     12  S   UNL     1      10.538   2.286  23.723  0.00  0.00    +0.000 S 
ATOM     13  O   UNL     1      10.881   1.142  24.426  0.00  0.00    +0.000 OA
ATOM     14  O   UNL     1      11.392   3.404  23.709  0.00  0.00    +0.000 OA
ATOM     15  C   UNL     1      10.085   1.852  22.012  0.00  0.00    +0.000 C 
ATOM     16  C   UNL     1       8.615   2.063  21.929  0.00  0.00    +0.000 C 
ENDBRANCH   1  16
BRANCH   1  17
ATOM     17  C   UNL     1       7.510   0.951  20.190  0.00  0.00    +0.000 A 
ATOM     18  C   UNL     1       6.256   1.820  20.284  0.00  0.00    +0.000 A 
ATOM     19  C   UNL     1       4.963   1.595  19.559  0.00  0.00    +0.000 A 
ATOM     20  C   UNL     1       5.186   0.397  18.697  0.00  0.00    +0.000 A 
ATOM     21  C   UNL     1       6.176  -0.564  18.486  0.00  0.00    +0.000 A 
ATOM     22  C   UNL     1       7.474   0.010  19.110  0.00  0.00    +0.000 A 
ENDBRANCH   1  17
BRANCH   7  23
ATOM     23  S   UNL     1       7.419  -4.288  24.298  0.00  0.00    +0.000 S 
ATOM     24  O   UNL     1       6.560  -4.293  23.078  0.00  0.00    +0.000 OA
ATOM     25  O   UNL     1       8.344  -5.368  24.289  0.00  0.00    +0.000 OA
BRANCH  23  26
ATOM     26  C   UNL     1       6.231  -4.467  25.654  0.00  0.00    +0.000 A 
ATOM     27  C   UNL     1       5.078  -3.647  25.189  0.00  0.00    +0.000 A 
ATOM     28  C   UNL     1       3.793  -4.152  24.638  0.00  0.00    +0.000 A 
ATOM     29  C   UNL     1       3.747  -5.680  24.636  0.00  0.00    +0.000 A 
ATOM     30  C   UNL     1       3.350  -6.226  23.183  0.00  0.00    +0.000 C 
ATOM     31  C   UNL     1       4.557  -6.536  25.531  0.00  0.00    +0.000 A 
ATOM     32  C   UNL     1       5.894  -5.869  25.963  0.00  0.00    +0.000 A 
ENDBRANCH  23  26
ENDBRANCH   7  23
TORSDOF 4
ENDMDL
MODEL 6
REMARK VINA RESULT:      -7.8      2.823      7.501
REMARK  Name = 
REMARK  5 active torsions:
REMARK  status: ('A' for Active; 'I' for Inactive)
REMARK    1  A    between atoms: C_11  and  N_13
REMARK    2  A    between atoms: N_13  and  C_47
REMARK    3  A    between atoms: N_23  and  S_24
REMARK    4  A    between atoms: S_24  and  C_27
REMARK    5  A    between atoms: C_32  and  C_33
REMARK                            x       y       z     vdW  Elec       q    Type
REMARK                         _______ _______ _______ _____ _____    ______ ____
ROOT
ATOM      1  N   UNL     1       6.969  -4.112  25.097  0.00  0.00    +0.000 N 
ATOM      2  C   UNL     1       6.453  -3.055  24.411  0.00  0.00    +0.000 C 
ATOM      3  O   UNL     1       5.272  -3.238  24.016  0.00  0.00    +0.000 OA
ATOM      4  N   UNL     1       6.835  -1.805  24.674  0.00  0.00    +0.000 N 
ATOM      5  C   UNL     1       5.924  -0.674  24.671  0.00  0.00    +0.000 C 
ATOM      6  C   UNL     1       6.521   0.571  23.989  0.00  0.00    +0.000 C 
ATOM      7  N   UNL     1       7.687   0.288  23.323  0.00  0.00    +0.000 NA
ATOM      8  C   UNL     1       8.689  -0.258  24.085  0.00  0.00    +0.000 C 
ATOM      9  C   UNL     1       8.249  -1.485  24.879  0.00  0.00    +0.000 C 
ENDROOT
BRANCH   1  16
ATOM     10  C   UNL     1       5.442  -3.830  27.024  0.00  0.00    +0.000 C 
ATOM     11  C   UNL     1       4.773  -4.644  28.015  0.00  0.00    +0.000 C 
ATOM     12  S   UNL     1       6.027  -5.998  28.264  0.00  0.00    +0.000 S 
ATOM     13  O   UNL     1       5.512  -7.157  27.706  0.00  0.00    +0.000 OA
ATOM     14  O   UNL     1       6.406  -5.958  29.617  0.00  0.00    +0.000 OA
ATOM     15  C   UNL     1       7.393  -5.367  27.236  0.00  0.00    +0.000 C 
ATOM     16  C   UNL     1       6.867  -4.132  26.596  0.00  0.00    +0.000 C 
ENDBRANCH   1  16
BRANCH   1  17
ATOM     17  C   UNL     1       6.537  -5.208  24.543  0.00  0.00    +0.000 A 
ATOM     18  C   UNL     1       7.565  -5.381  23.426  0.00  0.00    +0.000 A 
ATOM     19  C   UNL     1       7.275  -5.750  22.002  0.00  0.00    +0.000 A 
ATOM     20  C   UNL     1       5.801  -5.967  21.933  0.00  0.00    +0.000 A 
ATOM     21  C   UNL     1       4.686  -5.821  22.760  0.00  0.00    +0.000 A 
ATOM     22  C   UNL     1       5.235  -5.705  24.205  0.00  0.00    +0.000 A 
ENDBRANCH   1  17
BRANCH   7  23
ATOM     23  S   UNL     1       7.855   0.720  21.814  0.00  0.00    +0.000 S 
ATOM     24  O   UNL     1       8.787  -0.229  21.139  0.00  0.00    +0.000 OA
ATOM     25  O   UNL     1       6.626   0.834  21.110  0.00  0.00    +0.000 OA
BRANCH  23  26
ATOM     26  C   UNL     1       8.759   2.290  21.792  0.00  0.00    +0.000 A 
ATOM     27  C   UNL     1       7.689   3.287  22.071  0.00  0.00    +0.000 A 
ATOM     28  C   UNL     1       7.448   3.998  23.354  0.00  0.00    +0.000 A 
ATOM     29  C   UNL     1       8.489   3.620  24.407  0.00  0.00    +0.000 A 
ATOM     30  C   UNL     1       7.772   3.158  25.763  0.00  0.00    +0.000 C 
ATOM     31  C   UNL     1       9.837   3.097  24.090  0.00  0.00    +0.000 A 
ATOM     32  C   UNL     1       9.891   2.334  22.737  0.00  0.00    +0.000 A 
ENDBRANCH  23  26
ENDBRANCH   7  23
TORSDOF 4
ENDMDL
MODEL 7
REMARK VINA RESULT:      -7.7      2.086      2.695
REMARK  Name = 
REMARK  5 active torsions:
REMARK  status: ('A' for Active; 'I' for Inactive)
REMARK    1  A    between atoms: C_11  and  N_13
REMARK    2  A    between atoms: N_13  and  C_47
REMARK    3  A    between atoms: N_23  and  S_24
REMARK    4  A    between atoms: S_24  and  C_27
REMARK    5  A    between atoms: C_32  and  C_33
REMARK                            x       y       z     vdW  Elec       q    Type
REMARK                         _______ _______ _______ _____ _____    ______ ____
ROOT
ATOM      1  N   UNL     1       7.530   0.570  21.576  0.00  0.00    +0.000 N 
ATOM      2  C   UNL     1       7.474  -0.785  21.695  0.00  0.00    +0.000 C 
ATOM      3  O   UNL     1       8.014  -1.400  20.739  0.00  0.00    +0.000 OA
ATOM      4  N   UNL     1       7.471  -1.375  22.891  0.00  0.00    +0.000 N 
ATOM      5  C   UNL     1       8.182  -2.610  23.175  0.00  0.00    +0.000 C 
ATOM      6  C   UNL     1       7.358  -3.589  24.032  0.00  0.00    +0.000 C 
ATOM      7  N   UNL     1       6.048  -3.196  24.153  0.00  0.00    +0.000 NA
ATOM      8  C   UNL     1       5.849  -1.947  24.685  0.00  0.00    +0.000 C 
ATOM      9  C   UNL     1       6.642  -0.851  23.979  0.00  0.00    +0.000 C 
ENDROOT
BRANCH   1  16
ATOM     10  C   UNL     1       8.166   2.044  23.459  0.00  0.00    +0.000 C 
ATOM     11  C   UNL     1       8.888   1.968  24.709  0.00  0.00    +0.000 C 
ATOM     12  S   UNL     1      10.198   0.715  24.284  0.00  0.00    +0.000 S 
ATOM     13  O   UNL     1       9.903  -0.453  24.970  0.00  0.00    +0.000 OA
ATOM     14  O   UNL     1      11.440   1.352  24.448  0.00  0.00    +0.000 OA
ATOM     15  C   UNL     1       9.866   0.491  22.505  0.00  0.00    +0.000 C 
ATOM     16  C   UNL     1       8.662   1.316  22.223  0.00  0.00    +0.000 C 
ENDBRANCH   1  16
BRANCH   1  17
ATOM     17  C   UNL     1       7.372   0.875  20.319  0.00  0.00    +0.000 A 
ATOM     18  C   UNL     1       6.099   1.717  20.394  0.00  0.00    +0.000 A 
ATOM     19  C   UNL     1       4.920   1.629  19.471  0.00  0.00    +0.000 A 
ATOM     20  C   UNL     1       5.283   0.604  18.450  0.00  0.00    +0.000 A 
ATOM     21  C   UNL     1       6.311  -0.308  18.208  0.00  0.00    +0.000 A 
ATOM     22  C   UNL     1       7.502   0.141  19.095  0.00  0.00    +0.000 A 
ENDBRANCH   1  17
BRANCH   7  23
ATOM     23  S   UNL     1       4.889  -4.215  23.822  0.00  0.00    +0.000 S 
ATOM     24  O   UNL     1       3.650  -3.787  24.534  0.00  0.00    +0.000 OA
ATOM     25  O   UNL     1       4.658  -4.387  22.429  0.00  0.00    +0.000 OA
BRANCH  23  26
ATOM     26  C   UNL     1       5.307  -5.793  24.607  0.00  0.00    +0.000 A 
ATOM     27  C   UNL     1       5.326  -5.442  26.054  0.00  0.00    +0.000 A 
ATOM     28  C   UNL     1       4.283  -5.768  27.062  0.00  0.00    +0.000 A 
ATOM     29  C   UNL     1       3.145  -6.582  26.446  0.00  0.00    +0.000 A 
ATOM     30  C   UNL     1       1.731  -5.904  26.775  0.00  0.00    +0.000 C 
ATOM     31  C   UNL     1       3.282  -7.409  25.226  0.00  0.00    +0.000 A 
ATOM     32  C   UNL     1       4.383  -6.889  24.260  0.00  0.00    +0.000 A 
ENDBRANCH  23  26
ENDBRANCH   7  23
TORSDOF 4
ENDMDL
MODEL 8
REMARK VINA RESULT:      -7.7      1.803      1.990
REMARK  Name = 
REMARK  5 active torsions:
REMARK  status: ('A' for Active; 'I' for Inactive)
REMARK    1  A    between atoms: C_11  and  N_13
REMARK    2  A    between atoms: N_13  and  C_47
REMARK    3  A    between atoms: N_23  and  S_24
REMARK    4  A    between atoms: S_24  and  C_27
REMARK    5  A    between atoms: C_32  and  C_33
REMARK                            x       y       z     vdW  Elec       q    Type
REMARK                         _______ _______ _______ _____ _____    ______ ____
ROOT
ATOM      1  N   UNL     1       6.898   1.270  22.123  0.00  0.00    +0.000 N 
ATOM      2  C   UNL     1       7.759   0.382  22.691  0.00  0.00    +0.000 C 
ATOM      3  O   UNL     1       8.886   0.343  22.132  0.00  0.00    +0.000 OA
ATOM      4  N   UNL     1       7.700   0.095  23.992  0.00  0.00    +0.000 N 
ATOM      5  C   UNL     1       8.876  -0.113  24.819  0.00  0.00    +0.000 C 
ATOM      6  C   UNL     1       8.724  -1.305  25.783  0.00  0.00    +0.000 C 
ATOM      7  N   UNL     1       7.614  -2.061  25.501  0.00  0.00    +0.000 NA
ATOM      8  C   UNL     1       6.418  -1.390  25.518  0.00  0.00    +0.000 C 
ATOM      9  C   UNL     1       6.410  -0.137  24.647  0.00  0.00    +0.000 C 
ENDROOT
BRANCH   1  16
ATOM     10  C   UNL     1       5.536   2.817  23.494  0.00  0.00    +0.000 C 
ATOM     11  C   UNL     1       5.560   3.420  24.808  0.00  0.00    +0.000 C 
ATOM     12  S   UNL     1       7.392   3.629  25.067  0.00  0.00    +0.000 S 
ATOM     13  O   UNL     1       7.788   2.721  26.036  0.00  0.00    +0.000 OA
ATOM     14  O   UNL     1       7.626   5.006  25.233  0.00  0.00    +0.000 OA
ATOM     15  C   UNL     1       8.012   3.106  23.434  0.00  0.00    +0.000 C 
ATOM     16  C   UNL     1       6.809   2.663  22.680  0.00  0.00    +0.000 C 
ENDBRANCH   1  16
BRANCH   1  17
ATOM     17  C   UNL     1       7.082   1.249  20.834  0.00  0.00    +0.000 A 
ATOM     18  C   UNL     1       5.806   1.943  20.358  0.00  0.00    +0.000 A 
ATOM     19  C   UNL     1       4.934   1.511  19.217  0.00  0.00    +0.000 A 
ATOM     20  C   UNL     1       5.605   0.318  18.624  0.00  0.00    +0.000 A 
ATOM     21  C   UNL     1       6.695  -0.508  18.900  0.00  0.00    +0.000 A 
ATOM     22  C   UNL     1       7.575   0.264  19.917  0.00  0.00    +0.000 A 
ENDBRANCH   1  17
BRANCH   7  23
ATOM     23  S   UNL     1       7.753  -3.623  25.322  0.00  0.00    +0.000 S 
ATOM     24  O   UNL     1       9.077  -4.056  25.857  0.00  0.00    +0.000 OA
ATOM     25  O   UNL     1       6.688  -4.364  25.904  0.00  0.00    +0.000 OA
BRANCH  23  26
ATOM     26  C   UNL     1       7.881  -3.962  23.547  0.00  0.00    +0.000 A 
ATOM     27  C   UNL     1       7.486  -5.395  23.459  0.00  0.00    +0.000 A 
ATOM     28  C   UNL     1       6.186  -5.932  22.978  0.00  0.00    +0.000 A 
ATOM     29  C   UNL     1       5.256  -4.811  22.513  0.00  0.00    +0.000 A 
ATOM     30  C   UNL     1       3.827  -4.939  23.225  0.00  0.00    +0.000 C 
ATOM     31  C   UNL     1       5.722  -3.479  22.065  0.00  0.00    +0.000 A 
ATOM     32  C   UNL     1       7.070  -3.056  22.712  0.00  0.00    +0.000 A 
ENDBRANCH  23  26
ENDBRANCH   7  23
TORSDOF 4
ENDMDL
MODEL 9
REMARK VINA RESULT:      -7.6      2.597      7.637
REMARK  Name = 
REMARK  5 active torsions:
REMARK  status: ('A' for Active; 'I' for Inactive)
REMARK    1  A    between atoms: C_11  and  N_13
REMARK    2  A    between atoms: N_13  and  C_47
REMARK    3  A    between atoms: N_23  and  S_24
REMARK    4  A    between atoms: S_24  and  C_27
REMARK    5  A    between atoms: C_32  and  C_33
REMARK                            x       y       z     vdW  Elec       q    Type
REMARK                         _______ _______ _______ _____ _____    ______ ____
ROOT
ATOM      1  N   UNL     1       6.866  -3.142  25.000  0.00  0.00    +0.000 N 
ATOM      2  C   UNL     1       7.934  -2.364  24.669  0.00  0.00    +0.000 C 
ATOM      3  O   UNL     1       8.911  -2.488  25.452  0.00  0.00    +0.000 OA
ATOM      4  N   UNL     1       8.190  -2.044  23.400  0.00  0.00    +0.000 N 
ATOM      5  C   UNL     1       9.531  -1.977  22.848  0.00  0.00    +0.000 C 
ATOM      6  C   UNL     1       9.740  -0.755  21.934  0.00  0.00    +0.000 C 
ATOM      7  N   UNL     1       8.699   0.136  22.015  0.00  0.00    +0.000 NA
ATOM      8  C   UNL     1       7.459  -0.368  21.716  0.00  0.00    +0.000 C 
ATOM      9  C   UNL     1       7.109  -1.628  22.504  0.00  0.00    +0.000 C 
ENDROOT
BRANCH   1  16
ATOM     10  C   UNL     1       5.254  -4.855  24.231  0.00  0.00    +0.000 C 
ATOM     11  C   UNL     1       4.728  -5.379  22.991  0.00  0.00    +0.000 C 
ATOM     12  S   UNL     1       6.214  -5.220  21.882  0.00  0.00    +0.000 S 
ATOM     13  O   UNL     1       5.955  -4.208  20.971  0.00  0.00    +0.000 OA
ATOM     14  O   UNL     1       6.537  -6.516  21.443  0.00  0.00    +0.000 OA
ATOM     15  C   UNL     1       7.462  -4.665  23.089  0.00  0.00    +0.000 C 
ATOM     16  C   UNL     1       6.723  -4.498  24.369  0.00  0.00    +0.000 C 
ENDBRANCH   1  16
BRANCH   1  17
ATOM     17  C   UNL     1       6.773  -3.173  26.299  0.00  0.00    +0.000 A 
ATOM     18  C   UNL     1       7.457  -4.507  26.597  0.00  0.00    +0.000 A 
ATOM     19  C   UNL     1       6.975  -5.558  27.553  0.00  0.00    +0.000 A 
ATOM     20  C   UNL     1       5.743  -4.999  28.180  0.00  0.00    +0.000 A 
ATOM     21  C   UNL     1       4.918  -3.881  28.042  0.00  0.00    +0.000 A 
ATOM     22  C   UNL     1       5.733  -2.843  27.229  0.00  0.00    +0.000 A 
ENDBRANCH   1  17
BRANCH   7  23
ATOM     23  S   UNL     1       8.992   1.662  22.295  0.00  0.00    +0.000 S 
ATOM     24  O   UNL     1      10.243   2.053  21.583  0.00  0.00    +0.000 OA
ATOM     25  O   UNL     1       7.911   2.524  21.964  0.00  0.00    +0.000 OA
BRANCH  23  26
ATOM     26  C   UNL     1       9.433   1.822  24.045  0.00  0.00    +0.000 A 
ATOM     27  C   UNL     1       9.720   3.277  24.178  0.00  0.00    +0.000 A 
ATOM     28  C   UNL     1       8.843   4.303  24.802  0.00  0.00    +0.000 A 
ATOM     29  C   UNL     1       7.567   3.679  25.367  0.00  0.00    +0.000 A 
ATOM     30  C   UNL     1       6.276   4.454  24.819  0.00  0.00    +0.000 C 
ATOM     31  C   UNL     1       7.442   2.258  25.759  0.00  0.00    +0.000 A 
ATOM     32  C   UNL     1       8.395   1.321  24.965  0.00  0.00    +0.000 A 
ENDBRANCH  23  26
ENDBRANCH   7  23
TORSDOF 4
ENDMDL
