MODEL 1
REMARK VINA RESULT:      -8.6      0.000      0.000
REMARK  Name = 
REMARK  5 active torsions:
REMARK  status: ('A' for Active; 'I' for Inactive)
REMARK    1  A    between atoms: N_5  and  S_7
REMARK    2  A    between atoms: S_7  and  C_10
REMARK    3  A    between atoms: C_15  and  C_16
REMARK    4  A    between atoms: C_16  and  C_19
REMARK    5  A    between atoms: C_29  and  C_31
REMARK                            x       y       z     vdW  Elec       q    Type
REMARK                         _______ _______ _______ _____ _____    ______ ____
ROOT
ATOM      1  C   UNL     1       9.433   0.829  22.542  0.00  0.00    +0.000 A 
ATOM      2  C   UNL     1       8.043   1.032  22.037  0.00  0.00    +0.000 A 
ATOM      3  C   UNL     1       7.158   0.085  21.373  0.00  0.00    +0.000 A 
ATOM      4  C   UNL     1       7.715  -1.378  21.627  0.00  0.00    +0.000 A 
ATOM      5  C   UNL     1       9.172  -1.673  21.655  0.00  0.00    +0.000 A 
ATOM      6  C   UNL     1      10.023  -0.449  22.155  0.00  0.00    +0.000 A 
ENDROOT
BRANCH   1   7
ATOM      7  S   UNL     1       9.204   1.054  24.305  0.00  0.00    +0.000 S 
ATOM      8  O   UNL     1       7.997   0.421  24.672  0.00  0.00    +0.000 OA
ATOM      9  O   UNL     1      10.395   0.687  25.010  0.00  0.00    +0.000 OA
BRANCH   7  13
ATOM     10  C   UNL     1      11.867   3.939  23.272  0.00  0.00    +0.000 A 
ATOM     11  N   UNL     1      10.906   2.869  23.599  0.00  0.00    +0.000 NA
ATOM     12  C   UNL     1       9.737   3.361  23.617  0.00  0.00    +0.000 A 
ATOM     13  N   UNL     1       9.027   2.687  24.514  0.00  0.00    +0.000 N 
ATOM     14  H   UNL     1       9.332   2.900  25.412  0.00  0.00    +0.000 HD
ATOM     15  C   UNL     1       9.219   4.684  23.800  0.00  0.00    +0.000 A 
ATOM     16  C   UNL     1      10.025   5.858  23.774  0.00  0.00    +0.000 A 
ATOM     17  C   UNL     1      11.408   5.219  23.708  0.00  0.00    +0.000 A 
ENDBRANCH   7  13
ENDBRANCH   1   7
BRANCH   4  18
ATOM     18  C   UNL     1       6.667  -2.046  22.575  0.00  0.00    +0.000 C 
BRANCH  18  19
ATOM     19  C   UNL     1       5.788  -2.930  21.721  0.00  0.00    +0.000 C 
ATOM     20  O   UNL     1       5.726  -2.708  20.508  0.00  0.00    +0.000 OA
ATOM     21  N   UNL     1       5.477  -4.136  22.172  0.00  0.00    +0.000 N 
ATOM     22  C   UNL     1       5.868  -5.350  21.457  0.00  0.00    +0.000 C 
ATOM     23  C   UNL     1       7.051  -5.986  22.159  0.00  0.00    +0.000 C 
ATOM     24  O   UNL     1       7.335  -5.380  23.335  0.00  0.00    +0.000 OA
ATOM     25  C   UNL     1       6.232  -5.183  24.167  0.00  0.00    +0.000 C 
ATOM     26  C   UNL     1       5.221  -4.342  23.637  0.00  0.00    +0.000 C 
BRANCH  25  27
ATOM     27  C   UNL     1       6.774  -4.924  25.562  0.00  0.00    +0.000 A 
ATOM     28  C   UNL     1       6.468  -3.510  25.929  0.00  0.00    +0.000 A 
ATOM     29  C   UNL     1       7.455  -2.463  26.217  0.00  0.00    +0.000 A 
ATOM     30  C   UNL     1       8.882  -2.964  26.197  0.00  0.00    +0.000 A 
ATOM     31  F   UNL     1       9.433  -2.225  25.100  0.00  0.00    +0.000 F 
ATOM     32  C   UNL     1       9.296  -4.371  26.155  0.00  0.00    +0.000 A 
ATOM     33  C   UNL     1       8.110  -5.378  25.953  0.00  0.00    +0.000 A 
ENDBRANCH  25  27
ENDBRANCH  18  19
ENDBRANCH   4  18
TORSDOF 5
ENDMDL
MODEL 2
REMARK VINA RESULT:      -8.5      2.123      3.061
REMARK  Name = 
REMARK  5 active torsions:
REMARK  status: ('A' for Active; 'I' for Inactive)
REMARK    1  A    between atoms: N_5  and  S_7
REMARK    2  A    between atoms: S_7  and  C_10
REMARK    3  A    between atoms: C_15  and  C_16
REMARK    4  A    between atoms: C_16  and  C_19
REMARK    5  A    between atoms: C_29  and  C_31
REMARK                            x       y       z     vdW  Elec       q    Type
REMARK                         _______ _______ _______ _____ _____    ______ ____
ROOT
ATOM      1  C   UNL     1      10.168   0.422  22.778  0.00  0.00    +0.000 A 
ATOM      2  C   UNL     1       9.160   0.999  21.839  0.00  0.00    +0.000 A 
ATOM      3  C   UNL     1       8.220   0.314  20.964  0.00  0.00    +0.000 A 
ATOM      4  C   UNL     1       8.099  -1.192  21.448  0.00  0.00    +0.000 A 
ATOM      5  C   UNL     1       9.268  -1.952  21.961  0.00  0.00    +0.000 A 
ATOM      6  C   UNL     1      10.329  -1.024  22.659  0.00  0.00    +0.000 A 
ENDROOT
BRANCH   1   7
ATOM      7  S   UNL     1       9.540   0.986  24.359  0.00  0.00    +0.000 S 
ATOM      8  O   UNL     1      10.194   0.256  25.374  0.00  0.00    +0.000 OA
ATOM      9  O   UNL     1       9.582   2.416  24.427  0.00  0.00    +0.000 OA
BRANCH   7  13
ATOM     10  C   UNL     1       7.224   0.245  27.611  0.00  0.00    +0.000 A 
ATOM     11  N   UNL     1       8.083   0.558  26.454  0.00  0.00    +0.000 NA
ATOM     12  C   UNL     1       7.350   0.943  25.493  0.00  0.00    +0.000 A 
ATOM     13  N   UNL     1       7.937   0.570  24.361  0.00  0.00    +0.000 N 
ATOM     14  H   UNL     1       7.887  -0.395  24.259  0.00  0.00    +0.000 HD
ATOM     15  C   UNL     1       5.971   0.751  25.158  0.00  0.00    +0.000 A 
ATOM     16  C   UNL     1       5.006   0.217  26.059  0.00  0.00    +0.000 A 
ATOM     17  C   UNL     1       5.925  -0.188  27.208  0.00  0.00    +0.000 A 
ENDBRANCH   7  13
ENDBRANCH   1   7
BRANCH   4  18
ATOM     18  C   UNL     1       6.653  -1.311  22.029  0.00  0.00    +0.000 C 
BRANCH  18  19
ATOM     19  C   UNL     1       5.895  -2.284  21.157  0.00  0.00    +0.000 C 
ATOM     20  O   UNL     1       5.982  -2.170  19.930  0.00  0.00    +0.000 OA
ATOM     21  N   UNL     1       5.542  -3.452  21.672  0.00  0.00    +0.000 N 
ATOM     22  C   UNL     1       6.032  -4.715  21.122  0.00  0.00    +0.000 C 
ATOM     23  C   UNL     1       7.124  -5.262  22.019  0.00  0.00    +0.000 C 
ATOM     24  O   UNL     1       7.254  -4.550  23.161  0.00  0.00    +0.000 OA
ATOM     25  C   UNL     1       6.054  -4.304  23.831  0.00  0.00    +0.000 C 
ATOM     26  C   UNL     1       5.109  -3.533  23.107  0.00  0.00    +0.000 C 
BRANCH  25  27
ATOM     27  C   UNL     1       6.416  -3.912  25.253  0.00  0.00    +0.000 A 
ATOM     28  C   UNL     1       7.493  -2.880  25.195  0.00  0.00    +0.000 A 
ATOM     29  C   UNL     1       8.849  -3.021  25.739  0.00  0.00    +0.000 A 
ATOM     30  C   UNL     1       9.067  -4.324  26.476  0.00  0.00    +0.000 A 
ATOM     31  F   UNL     1      10.066  -4.952  25.663  0.00  0.00    +0.000 F 
ATOM     32  C   UNL     1       8.019  -5.274  26.864  0.00  0.00    +0.000 A 
ATOM     33  C   UNL     1       6.599  -4.924  26.296  0.00  0.00    +0.000 A 
ENDBRANCH  25  27
ENDBRANCH  18  19
ENDBRANCH   4  18
TORSDOF 5
ENDMDL
MODEL 3
REMARK VINA RESULT:      -8.4      1.939      2.588
REMARK  Name = 
REMARK  5 active torsions:
REMARK  status: ('A' for Active; 'I' for Inactive)
REMARK    1  A    between atoms: N_5  and  S_7
REMARK    2  A    between atoms: S_7  and  C_10
REMARK    3  A    between atoms: C_15  and  C_16
REMARK    4  A    between atoms: C_16  and  C_19
REMARK    5  A    between atoms: C_29  and  C_31
REMARK                            x       y       z     vdW  Elec       q    Type
REMARK                         _______ _______ _______ _____ _____    ______ ____
ROOT
ATOM      1  C   UNL     1      10.042   0.546  22.377  0.00  0.00    +0.000 A 
ATOM      2  C   UNL     1       8.933   0.709  21.390  0.00  0.00    +0.000 A 
ATOM      3  C   UNL     1       8.035  -0.296  20.841  0.00  0.00    +0.000 A 
ATOM      4  C   UNL     1       8.103  -1.583  21.767  0.00  0.00    +0.000 A 
ATOM      5  C   UNL     1       9.373  -2.036  22.393  0.00  0.00    +0.000 A 
ATOM      6  C   UNL     1      10.355  -0.845  22.691  0.00  0.00    +0.000 A 
ENDROOT
BRANCH   1   7
ATOM      7  S   UNL     1       9.429   1.513  23.757  0.00  0.00    +0.000 S 
ATOM      8  O   UNL     1       9.833   0.876  24.949  0.00  0.00    +0.000 OA
ATOM      9  O   UNL     1       9.771   2.893  23.584  0.00  0.00    +0.000 OA
BRANCH   7  13
ATOM     10  C   UNL     1       6.737   2.864  26.480  0.00  0.00    +0.000 A 
ATOM     11  N   UNL     1       7.741   2.420  25.495  0.00  0.00    +0.000 NA
ATOM     12  C   UNL     1       7.204   2.400  24.345  0.00  0.00    +0.000 A 
ATOM     13  N   UNL     1       7.779   1.428  23.647  0.00  0.00    +0.000 N 
ATOM     14  H   UNL     1       7.509   0.561  23.993  0.00  0.00    +0.000 HD
ATOM     15  C   UNL     1       5.852   2.304  23.882  0.00  0.00    +0.000 A 
ATOM     16  C   UNL     1       4.716   2.450  24.728  0.00  0.00    +0.000 A 
ATOM     17  C   UNL     1       5.411   2.514  26.084  0.00  0.00    +0.000 A 
ENDBRANCH   7  13
ENDBRANCH   1   7
BRANCH   4  18
ATOM     18  C   UNL     1       6.708  -1.645  22.468  0.00  0.00    +0.000 C 
BRANCH  18  19
ATOM     19  C   UNL     1       5.861  -2.630  21.697  0.00  0.00    +0.000 C 
ATOM     20  O   UNL     1       5.717  -2.463  20.482  0.00  0.00    +0.000 OA
ATOM     21  N   UNL     1       5.674  -3.838  22.208  0.00  0.00    +0.000 N 
ATOM     22  C   UNL     1       6.126  -5.044  21.517  0.00  0.00    +0.000 C 
ATOM     23  C   UNL     1       7.391  -5.555  22.175  0.00  0.00    +0.000 C 
ATOM     24  O   UNL     1       7.686  -4.881  23.310  0.00  0.00    +0.000 OA
ATOM     25  C   UNL     1       6.616  -4.739  24.195  0.00  0.00    +0.000 C 
ATOM     26  C   UNL     1       5.513  -4.004  23.691  0.00  0.00    +0.000 C 
BRANCH  25  27
ATOM     27  C   UNL     1       7.207  -4.381  25.547  0.00  0.00    +0.000 A 
ATOM     28  C   UNL     1       6.119  -3.822  26.401  0.00  0.00    +0.000 A 
ATOM     29  C   UNL     1       6.072  -2.464  26.956  0.00  0.00    +0.000 A 
ATOM     30  C   UNL     1       7.312  -1.651  26.653  0.00  0.00    +0.000 A 
ATOM     31  F   UNL     1       6.777  -0.600  25.839  0.00  0.00    +0.000 F 
ATOM     32  C   UNL     1       8.565  -2.173  26.097  0.00  0.00    +0.000 A 
ATOM     33  C   UNL     1       8.487  -3.676  25.653  0.00  0.00    +0.000 A 
ENDBRANCH  25  27
ENDBRANCH  18  19
ENDBRANCH   4  18
TORSDOF 5
ENDMDL
MODEL 4
REMARK VINA RESULT:      -8.3      2.941      7.250
REMARK  Name = 
REMARK  5 active torsions:
REMARK  status: ('A' for Active; 'I' for Inactive)
REMARK    1  A    between atoms: N_5  and  S_7
REMARK    2  A    between atoms: S_7  and  C_10
REMARK    3  A    between atoms: C_15  and  C_16
REMARK    4  A    between atoms: C_16  and  C_19
REMARK    5  A    between atoms: C_29  and  C_31
REMARK                            x       y       z     vdW  Elec       q    Type
REMARK                         _______ _______ _______ _____ _____    ______ ____
ROOT
ATOM      1  C   UNL     1       8.707  -4.167  25.806  0.00  0.00    +0.000 A 
ATOM      2  C   UNL     1       8.131  -2.973  26.493  0.00  0.00    +0.000 A 
ATOM      3  C   UNL     1       8.198  -1.570  26.109  0.00  0.00    +0.000 A 
ATOM      4  C   UNL     1       8.623  -1.492  24.583  0.00  0.00    +0.000 A 
ATOM      5  C   UNL     1       9.608  -2.434  23.991  0.00  0.00    +0.000 A 
ATOM      6  C   UNL     1       9.594  -3.840  24.694  0.00  0.00    +0.000 A 
ENDROOT
BRANCH   1   7
ATOM      7  S   UNL     1       7.222  -5.063  25.352  0.00  0.00    +0.000 S 
ATOM      8  O   UNL     1       7.364  -5.494  24.016  0.00  0.00    +0.000 OA
ATOM      9  O   UNL     1       6.914  -6.046  26.346  0.00  0.00    +0.000 OA
BRANCH   7  13
ATOM     10  C   UNL     1       3.311  -5.667  24.444  0.00  0.00    +0.000 A 
ATOM     11  N   UNL     1       4.731  -5.492  24.803  0.00  0.00    +0.000 NA
ATOM     12  C   UNL     1       4.830  -4.527  25.621  0.00  0.00    +0.000 A 
ATOM     13  N   UNL     1       6.004  -3.942  25.418  0.00  0.00    +0.000 N 
ATOM     14  H   UNL     1       6.000  -3.467  24.570  0.00  0.00    +0.000 HD
ATOM     15  C   UNL     1       4.010  -3.392  25.921  0.00  0.00    +0.000 A 
ATOM     16  C   UNL     1       2.672  -3.239  25.456  0.00  0.00    +0.000 A 
ATOM     17  C   UNL     1       2.588  -4.438  24.518  0.00  0.00    +0.000 A 
ENDBRANCH   7  13
ENDBRANCH   1   7
BRANCH   4  18
ATOM     18  C   UNL     1       7.351  -0.972  23.839  0.00  0.00    +0.000 C 
BRANCH  18  19
ATOM     19  C   UNL     1       7.199  -1.792  22.580  0.00  0.00    +0.000 C 
ATOM     20  O   UNL     1       6.421  -2.752  22.588  0.00  0.00    +0.000 OA
ATOM     21  N   UNL     1       7.525  -1.239  21.422  0.00  0.00    +0.000 N 
ATOM     22  C   UNL     1       6.544  -1.051  20.354  0.00  0.00    +0.000 C 
ATOM     23  C   UNL     1       6.121   0.404  20.313  0.00  0.00    +0.000 C 
ATOM     24  O   UNL     1       6.861   1.176  21.140  0.00  0.00    +0.000 OA
ATOM     25  C   UNL     1       8.240   0.993  21.026  0.00  0.00    +0.000 C 
ATOM     26  C   UNL     1       8.702  -0.309  21.344  0.00  0.00    +0.000 C 
BRANCH  25  27
ATOM     27  C   UNL     1       8.899   2.204  21.664  0.00  0.00    +0.000 A 
ATOM     28  C   UNL     1      10.082   1.737  22.444  0.00  0.00    +0.000 A 
ATOM     29  C   UNL     1      10.265   1.872  23.894  0.00  0.00    +0.000 A 
ATOM     30  C   UNL     1       9.146   2.634  24.570  0.00  0.00    +0.000 A 
ATOM     31  F   UNL     1       8.587   1.629  25.424  0.00  0.00    +0.000 F 
ATOM     32  C   UNL     1       8.096   3.400  23.888  0.00  0.00    +0.000 A 
ATOM     33  C   UNL     1       8.103   3.240  22.327  0.00  0.00    +0.000 A 
ENDBRANCH  25  27
ENDBRANCH  18  19
ENDBRANCH   4  18
TORSDOF 5
ENDMDL
MODEL 5
REMARK VINA RESULT:      -8.3      3.070      4.945
REMARK  Name = 
REMARK  5 active torsions:
REMARK  status: ('A' for Active; 'I' for Inactive)
REMARK    1  A    between atoms: N_5  and  S_7
REMARK    2  A    between atoms: S_7  and  C_10
REMARK    3  A    between atoms: C_15  and  C_16
REMARK    4  A    between atoms: C_16  and  C_19
REMARK    5  A    between atoms: C_29  and  C_31
REMARK                            x       y       z     vdW  Elec       q    Type
REMARK                         _______ _______ _______ _____ _____    ______ ____
ROOT
ATOM      1  C   UNL     1      10.142  -0.080  23.450  0.00  0.00    +0.000 A 
ATOM      2  C   UNL     1       9.538  -1.420  23.186  0.00  0.00    +0.000 A 
ATOM      3  C   UNL     1       8.875  -2.328  24.110  0.00  0.00    +0.000 A 
ATOM      4  C   UNL     1       8.482  -1.513  25.413  0.00  0.00    +0.000 A 
ATOM      5  C   UNL     1       9.360  -0.453  25.973  0.00  0.00    +0.000 A 
ATOM      6  C   UNL     1      10.214   0.268  24.866  0.00  0.00    +0.000 A 
ENDROOT
BRANCH   1   7
ATOM      7  S   UNL     1       9.089   0.983  22.462  0.00  0.00    +0.000 S 
ATOM      8  O   UNL     1       8.006   1.394  23.268  0.00  0.00    +0.000 OA
ATOM      9  O   UNL     1       9.872   1.995  21.821  0.00  0.00    +0.000 OA
BRANCH   7  13
ATOM     10  C   UNL     1       5.817   1.666  20.157  0.00  0.00    +0.000 A 
ATOM     11  N   UNL     1       7.021   1.468  20.986  0.00  0.00    +0.000 NA
ATOM     12  C   UNL     1       7.832   0.721  20.357  0.00  0.00    +0.000 A 
ATOM     13  N   UNL     1       8.508   0.012  21.253  0.00  0.00    +0.000 N 
ATOM     14  H   UNL     1       7.927  -0.650  21.665  0.00  0.00    +0.000 HD
ATOM     15  C   UNL     1       7.684  -0.240  19.305  0.00  0.00    +0.000 A 
ATOM     16  C   UNL     1       6.497  -0.391  18.534  0.00  0.00    +0.000 A 
ATOM     17  C   UNL     1       5.573   0.553  19.298  0.00  0.00    +0.000 A 
ENDBRANCH   7  13
ENDBRANCH   1   7
BRANCH   4  18
ATOM     18  C   UNL     1       6.922  -1.433  25.380  0.00  0.00    +0.000 C 
BRANCH  18  19
ATOM     19  C   UNL     1       6.415  -1.983  26.692  0.00  0.00    +0.000 C 
ATOM     20  O   UNL     1       6.517  -1.285  27.705  0.00  0.00    +0.000 OA
ATOM     21  N   UNL     1       5.511  -2.950  26.665  0.00  0.00    +0.000 N 
ATOM     22  C   UNL     1       4.180  -2.776  27.244  0.00  0.00    +0.000 C 
ATOM     23  C   UNL     1       3.176  -2.545  26.133  0.00  0.00    +0.000 C 
ATOM     24  O   UNL     1       3.719  -2.719  24.907  0.00  0.00    +0.000 OA
ATOM     25  C   UNL     1       4.452  -3.898  24.760  0.00  0.00    +0.000 C 
ATOM     26  C   UNL     1       5.585  -4.011  25.605  0.00  0.00    +0.000 C 
BRANCH  25  27
ATOM     27  C   UNL     1       4.597  -4.144  23.268  0.00  0.00    +0.000 A 
ATOM     28  C   UNL     1       4.805  -5.605  23.051  0.00  0.00    +0.000 A 
ATOM     29  C   UNL     1       5.995  -6.227  22.459  0.00  0.00    +0.000 A 
ATOM     30  C   UNL     1       7.020  -5.222  21.981  0.00  0.00    +0.000 A 
ATOM     31  F   UNL     1       8.133  -5.514  22.834  0.00  0.00    +0.000 F 
ATOM     32  C   UNL     1       6.809  -3.775  21.856  0.00  0.00    +0.000 A 
ATOM     33  C   UNL     1       5.437  -3.280  22.435  0.00  0.00    +0.000 A 
ENDBRANCH  25  27
ENDBRANCH  18  19
ENDBRANCH   4  18
TORSDOF 5
ENDMDL
MODEL 6
REMARK VINA RESULT:      -8.2      2.868      6.095
REMARK  Name = 
REMARK  5 active torsions:
REMARK  status: ('A' for Active; 'I' for Inactive)
REMARK    1  A    between atoms: N_5  and  S_7
REMARK    2  A    between atoms: S_7  and  C_10
REMARK    3  A    between atoms: C_15  and  C_16
REMARK    4  A    between atoms: C_16  and  C_19
REMARK    5  A    between atoms: C_29  and  C_31
REMARK                            x       y       z     vdW  Elec       q    Type
REMARK                         _______ _______ _______ _____ _____    ______ ____
ROOT
ATOM      1  C   UNL     1       6.646  -5.129  24.750  0.00  0.00    +0.000 A 
ATOM      2  C   UNL     1       7.552  -5.020  23.569  0.00  0.00    +0.000 A 
ATOM      3  C   UNL     1       7.287  -4.449  22.256  0.00  0.00    +0.000 A 
ATOM      4  C   UNL     1       5.992  -3.539  22.362  0.00  0.00    +0.000 A 
ATOM      5  C   UNL     1       4.835  -3.913  23.217  0.00  0.00    +0.000 A 
ATOM      6  C   UNL     1       5.262  -4.758  24.472  0.00  0.00    +0.000 A 
ENDROOT
BRANCH   1   7
ATOM      7  S   UNL     1       7.487  -4.080  25.936  0.00  0.00    +0.000 S 
ATOM      8  O   UNL     1       7.668  -4.821  27.123  0.00  0.00    +0.000 OA
ATOM      9  O   UNL     1       8.640  -3.481  25.336  0.00  0.00    +0.000 OA
BRANCH   7  13
ATOM     10  C   UNL     1       8.426  -0.344  27.219  0.00  0.00    +0.000 A 
ATOM     11  N   UNL     1       8.123  -1.697  26.716  0.00  0.00    +0.000 NA
ATOM     12  C   UNL     1       7.020  -1.663  26.090  0.00  0.00    +0.000 A 
ATOM     13  N   UNL     1       6.430  -2.842  26.245  0.00  0.00    +0.000 N 
ATOM     14  H   UNL     1       6.120  -2.946  27.160  0.00  0.00    +0.000 HD
ATOM     15  C   UNL     1       5.888  -0.787  26.121  0.00  0.00    +0.000 A 
ATOM     16  C   UNL     1       5.884   0.476  26.777  0.00  0.00    +0.000 A 
ATOM     17  C   UNL     1       7.239   0.407  27.475  0.00  0.00    +0.000 A 
ENDBRANCH   7  13
ENDBRANCH   1   7
BRANCH   4  18
ATOM     18  C   UNL     1       6.514  -2.077  22.184  0.00  0.00    +0.000 C 
BRANCH  18  19
ATOM     19  C   UNL     1       6.393  -1.732  20.718  0.00  0.00    +0.000 C 
ATOM     20  O   UNL     1       5.423  -2.163  20.087  0.00  0.00    +0.000 OA
ATOM     21  N   UNL     1       7.033  -0.665  20.265  0.00  0.00    +0.000 N 
ATOM     22  C   UNL     1       6.320   0.469  19.678  0.00  0.00    +0.000 C 
ATOM     23  C   UNL     1       6.262   1.600  20.684  0.00  0.00    +0.000 C 
ATOM     24  O   UNL     1       7.009   1.348  21.782  0.00  0.00    +0.000 OA
ATOM     25  C   UNL     1       8.306   0.907  21.513  0.00  0.00    +0.000 C 
ATOM     26  C   UNL     1       8.389  -0.322  20.809  0.00  0.00    +0.000 C 
BRANCH  25  27
ATOM     27  C   UNL     1       9.111   1.102  22.786  0.00  0.00    +0.000 A 
ATOM     28  C   UNL     1       8.165   1.430  23.893  0.00  0.00    +0.000 A 
ATOM     29  C   UNL     1       8.144   2.679  24.664  0.00  0.00    +0.000 A 
ATOM     30  C   UNL     1       9.261   3.630  24.296  0.00  0.00    +0.000 A 
ATOM     31  F   UNL     1       8.530   4.744  23.769  0.00  0.00    +0.000 F 
ATOM     32  C   UNL     1      10.420   3.307  23.456  0.00  0.00    +0.000 A 
ATOM     33  C   UNL     1      10.347   1.888  22.789  0.00  0.00    +0.000 A 
ENDBRANCH  25  27
ENDBRANCH  18  19
ENDBRANCH   4  18
TORSDOF 5
ENDMDL
MODEL 7
REMARK VINA RESULT:      -8.2      2.658      7.608
REMARK  Name = 
REMARK  5 active torsions:
REMARK  status: ('A' for Active; 'I' for Inactive)
REMARK    1  A    between atoms: N_5  and  S_7
REMARK    2  A    between atoms: S_7  and  C_10
REMARK    3  A    between atoms: C_15  and  C_16
REMARK    4  A    between atoms: C_16  and  C_19
REMARK    5  A    between atoms: C_29  and  C_31
REMARK                            x       y       z     vdW  Elec       q    Type
REMARK                         _______ _______ _______ _____ _____    ______ ____
ROOT
ATOM      1  C   UNL     1       8.930  -3.070  25.841  0.00  0.00    +0.000 A 
ATOM      2  C   UNL     1       8.462  -2.002  26.774  0.00  0.00    +0.000 A 
ATOM      3  C   UNL     1       8.525  -0.556  26.622  0.00  0.00    +0.000 A 
ATOM      4  C   UNL     1       8.786  -0.228  25.092  0.00  0.00    +0.000 A 
ATOM      5  C   UNL     1       9.677  -1.066  24.248  0.00  0.00    +0.000 A 
ATOM      6  C   UNL     1       9.701  -2.569  24.707  0.00  0.00    +0.000 A 
ENDROOT
BRANCH   1   7
ATOM      7  S   UNL     1       7.381  -3.865  25.411  0.00  0.00    +0.000 S 
ATOM      8  O   UNL     1       7.156  -4.908  26.333  0.00  0.00    +0.000 OA
ATOM      9  O   UNL     1       6.353  -2.883  25.242  0.00  0.00    +0.000 OA
BRANCH   7  13
ATOM     10  C   UNL     1       4.614  -5.658  23.042  0.00  0.00    +0.000 A 
ATOM     11  N   UNL     1       5.585  -4.966  23.911  0.00  0.00    +0.000 NA
ATOM     12  C   UNL     1       6.525  -4.510  23.190  0.00  0.00    +0.000 A 
ATOM     13  N   UNL     1       7.637  -4.529  23.915  0.00  0.00    +0.000 N 
ATOM     14  H   UNL     1       7.934  -5.444  24.051  0.00  0.00    +0.000 HD
ATOM     15  C   UNL     1       7.039  -4.850  21.897  0.00  0.00    +0.000 A 
ATOM     16  C   UNL     1       6.372  -5.717  20.985  0.00  0.00    +0.000 A 
ATOM     17  C   UNL     1       5.233  -6.201  21.877  0.00  0.00    +0.000 A 
ENDBRANCH   7  13
ENDBRANCH   1   7
BRANCH   4  18
ATOM     18  C   UNL     1       7.456   0.420  24.588  0.00  0.00    +0.000 C 
BRANCH  18  19
ATOM     19  C   UNL     1       7.701   1.904  24.453  0.00  0.00    +0.000 C 
ATOM     20  O   UNL     1       7.944   2.559  25.472  0.00  0.00    +0.000 OA
ATOM     21  N   UNL     1       8.086   2.377  23.277  0.00  0.00    +0.000 N 
ATOM     22  C   UNL     1       9.372   3.050  23.101  0.00  0.00    +0.000 C 
ATOM     23  C   UNL     1      10.346   2.102  22.431  0.00  0.00    +0.000 C 
ATOM     24  O   UNL     1       9.750   0.959  22.023  0.00  0.00    +0.000 OA
ATOM     25  C   UNL     1       8.569   1.146  21.302  0.00  0.00    +0.000 C 
ATOM     26  C   UNL     1       7.524   1.786  22.016  0.00  0.00    +0.000 C 
BRANCH  25  27
ATOM     27  C   UNL     1       8.293  -0.153  20.565  0.00  0.00    +0.000 A 
ATOM     28  C   UNL     1       7.986   0.171  19.142  0.00  0.00    +0.000 A 
ATOM     29  C   UNL     1       6.719  -0.098  18.451  0.00  0.00    +0.000 A 
ATOM     30  C   UNL     1       5.718  -0.844  19.306  0.00  0.00    +0.000 A 
ATOM     31  F   UNL     1       4.662   0.117  19.420  0.00  0.00    +0.000 F 
ATOM     32  C   UNL     1       6.001  -1.482  20.597  0.00  0.00    +0.000 A 
ATOM     33  C   UNL     1       7.440  -1.191  21.150  0.00  0.00    +0.000 A 
ENDBRANCH  25  27
ENDBRANCH  18  19
ENDBRANCH   4  18
TORSDOF 5
ENDMDL
MODEL 8
REMARK VINA RESULT:      -8.0      1.816      2.338
REMARK  Name = 
REMARK  5 active torsions:
REMARK  status: ('A' for Active; 'I' for Inactive)
REMARK    1  A    between atoms: N_5  and  S_7
REMARK    2  A    between atoms: S_7  and  C_10
REMARK    3  A    between atoms: C_15  and  C_16
REMARK    4  A    between atoms: C_16  and  C_19
REMARK    5  A    between atoms: C_29  and  C_31
REMARK                            x       y       z     vdW  Elec       q    Type
REMARK                         _______ _______ _______ _____ _____    ______ ____
ROOT
ATOM      1  C   UNL     1       9.983   0.359  22.432  0.00  0.00    +0.000 A 
ATOM      2  C   UNL     1       8.954   0.443  21.353  0.00  0.00    +0.000 A 
ATOM      3  C   UNL     1       8.099  -0.605  20.814  0.00  0.00    +0.000 A 
ATOM      4  C   UNL     1       8.092  -1.817  21.839  0.00  0.00    +0.000 A 
ATOM      5  C   UNL     1       9.308  -2.216  22.594  0.00  0.00    +0.000 A 
ATOM      6  C   UNL     1      10.268  -1.002  22.875  0.00  0.00    +0.000 A 
ENDROOT
BRANCH   1   7
ATOM      7  S   UNL     1       9.268   1.427  23.683  0.00  0.00    +0.000 S 
ATOM      8  O   UNL     1       8.577   0.615  24.606  0.00  0.00    +0.000 OA
ATOM      9  O   UNL     1      10.259   2.327  24.190  0.00  0.00    +0.000 OA
BRANCH   7  13
ATOM     10  C   UNL     1       7.183   4.573  25.182  0.00  0.00    +0.000 A 
ATOM     11  N   UNL     1       7.985   3.450  24.659  0.00  0.00    +0.000 NA
ATOM     12  C   UNL     1       8.096   3.579  23.401  0.00  0.00    +0.000 A 
ATOM     13  N   UNL     1       8.165   2.362  22.874  0.00  0.00    +0.000 N 
ATOM     14  H   UNL     1       7.304   1.918  22.940  0.00  0.00    +0.000 HD
ATOM     15  C   UNL     1       7.332   4.264  22.402  0.00  0.00    +0.000 A 
ATOM     16  C   UNL     1       6.316   5.216  22.700  0.00  0.00    +0.000 A 
ATOM     17  C   UNL     1       6.251   5.058  24.216  0.00  0.00    +0.000 A 
ENDBRANCH   7  13
ENDBRANCH   1   7
BRANCH   4  18
ATOM     18  C   UNL     1       6.647  -1.830  22.433  0.00  0.00    +0.000 C 
BRANCH  18  19
ATOM     19  C   UNL     1       5.821  -2.769  21.585  0.00  0.00    +0.000 C 
ATOM     20  O   UNL     1       5.685  -2.517  20.384  0.00  0.00    +0.000 OA
ATOM     21  N   UNL     1       5.648  -4.013  22.006  0.00  0.00    +0.000 N 
ATOM     22  C   UNL     1       6.123  -5.160  21.234  0.00  0.00    +0.000 C 
ATOM     23  C   UNL     1       7.391  -5.699  21.865  0.00  0.00    +0.000 C 
ATOM     24  O   UNL     1       7.666  -5.104  23.049  0.00  0.00    +0.000 OA
ATOM     25  C   UNL     1       6.586  -5.042  23.931  0.00  0.00    +0.000 C 
ATOM     26  C   UNL     1       5.477  -4.288  23.472  0.00  0.00    +0.000 C 
BRANCH  25  27
ATOM     27  C   UNL     1       7.161  -4.774  25.311  0.00  0.00    +0.000 A 
ATOM     28  C   UNL     1       6.353  -5.531  26.311  0.00  0.00    +0.000 A 
ATOM     29  C   UNL     1       5.563  -4.945  27.401  0.00  0.00    +0.000 A 
ATOM     30  C   UNL     1       5.700  -3.441  27.498  0.00  0.00    +0.000 A 
ATOM     31  F   UNL     1       4.363  -3.010  27.217  0.00  0.00    +0.000 F 
ATOM     32  C   UNL     1       6.686  -2.622  26.784  0.00  0.00    +0.000 A 
ATOM     33  C   UNL     1       7.531  -3.419  25.729  0.00  0.00    +0.000 A 
ENDBRANCH  25  27
ENDBRANCH  18  19
ENDBRANCH   4  18
TORSDOF 5
ENDMDL
MODEL 9
REMARK VINA RESULT:      -8.0      3.006      4.745
REMARK  Name = 
REMARK  5 active torsions:
REMARK  status: ('A' for Active; 'I' for Inactive)
REMARK    1  A    between atoms: N_5  and  S_7
REMARK    2  A    between atoms: S_7  and  C_10
REMARK    3  A    between atoms: C_15  and  C_16
REMARK    4  A    between atoms: C_16  and  C_19
REMARK    5  A    between atoms: C_29  and  C_31
REMARK                            x       y       z     vdW  Elec       q    Type
REMARK                         _______ _______ _______ _____ _____    ______ ____
ROOT
ATOM      1  C   UNL     1       9.404   0.705  23.844  0.00  0.00    +0.000 A 
ATOM      2  C   UNL     1       9.951  -0.334  22.921  0.00  0.00    +0.000 A 
ATOM      3  C   UNL     1      10.052  -1.773  23.112  0.00  0.00    +0.000 A 
ATOM      4  C   UNL     1       9.090  -2.185  24.304  0.00  0.00    +0.000 A 
ATOM      5  C   UNL     1       8.907  -1.325  25.502  0.00  0.00    +0.000 A 
ATOM      6  C   UNL     1       9.088   0.203  25.178  0.00  0.00    +0.000 A 
ENDROOT
BRANCH   1   7
ATOM      7  S   UNL     1       7.997   1.302  22.907  0.00  0.00    +0.000 S 
ATOM      8  O   UNL     1       6.842   1.133  23.700  0.00  0.00    +0.000 OA
ATOM      9  O   UNL     1       8.269   2.607  22.385  0.00  0.00    +0.000 OA
BRANCH   7  13
ATOM     10  C   UNL     1       5.424   1.638  19.784  0.00  0.00    +0.000 A 
ATOM     11  N   UNL     1       6.369   1.568  20.914  0.00  0.00    +0.000 NA
ATOM     12  C   UNL     1       7.404   0.935  20.541  0.00  0.00    +0.000 A 
ATOM     13  N   UNL     1       7.889   0.293  21.598  0.00  0.00    +0.000 N 
ATOM     14  H   UNL     1       7.301  -0.441  21.844  0.00  0.00    +0.000 HD
ATOM     15  C   UNL     1       7.666  -0.016  19.503  0.00  0.00    +0.000 A 
ATOM     16  C   UNL     1       6.762  -0.292  18.438  0.00  0.00    +0.000 A 
ATOM     17  C   UNL     1       5.559   0.521  18.906  0.00  0.00    +0.000 A 
ENDBRANCH   7  13
ENDBRANCH   1   7
BRANCH   4  18
ATOM     18  C   UNL     1       7.942  -3.002  23.627  0.00  0.00    +0.000 C 
BRANCH  18  19
ATOM     19  C   UNL     1       8.080  -4.435  24.084  0.00  0.00    +0.000 C 
ATOM     20  O   UNL     1       9.202  -4.949  24.089  0.00  0.00    +0.000 OA
ATOM     21  N   UNL     1       7.135  -4.944  24.861  0.00  0.00    +0.000 N 
ATOM     22  C   UNL     1       7.424  -5.419  26.213  0.00  0.00    +0.000 C 
ATOM     23  C   UNL     1       6.939  -4.394  27.218  0.00  0.00    +0.000 C 
ATOM     24  O   UNL     1       6.231  -3.400  26.636  0.00  0.00    +0.000 OA
ATOM     25  C   UNL     1       5.235  -3.835  25.759  0.00  0.00    +0.000 C 
ATOM     26  C   UNL     1       5.700  -4.565  24.636  0.00  0.00    +0.000 C 
BRANCH  25  27
ATOM     27  C   UNL     1       4.285  -2.667  25.558  0.00  0.00    +0.000 A 
ATOM     28  C   UNL     1       5.091  -1.414  25.486  0.00  0.00    +0.000 A 
ATOM     29  C   UNL     1       5.010  -0.284  26.419  0.00  0.00    +0.000 A 
ATOM     30  C   UNL     1       3.935  -0.451  27.470  0.00  0.00    +0.000 A 
ATOM     31  F   UNL     1       4.712  -0.503  28.673  0.00  0.00    +0.000 F 
ATOM     32  C   UNL     1       2.886  -1.476  27.468  0.00  0.00    +0.000 A 
ATOM     33  C   UNL     1       3.049  -2.552  26.337  0.00  0.00    +0.000 A 
ENDBRANCH  25  27
ENDBRANCH  18  19
ENDBRANCH   4  18
TORSDOF 5
ENDMDL
