MODEL 1
REMARK VINA RESULT:      -8.7      0.000      0.000
REMARK  Name = 
REMARK  4 active torsions:
REMARK  status: ('A' for Active; 'I' for Inactive)
REMARK    1  A    between atoms: C_7  and  C_8
REMARK    2  A    between atoms: C_10  and  C_11
REMARK    3  A    between atoms: C_16  and  N_17
REMARK    4  A    between atoms: C_35  and  C_37
REMARK                            x       y       z     vdW  Elec       q    Type
REMARK                         _______ _______ _______ _____ _____    ______ ____
ROOT
ATOM      1  N   UNL     1       8.514  -0.693  24.704  0.00  0.00    +0.000 N 
ATOM      2  H   UNL     1       9.045  -0.658  25.501  0.00  0.00    +0.000 HD
ATOM      3  C   UNL     1       9.315  -0.441  23.634  0.00  0.00    +0.000 C 
ATOM      4  O   UNL     1      10.509  -0.394  23.736  0.00  0.00    +0.000 OA
ATOM      5  N   UNL     1       8.619   0.283  22.746  0.00  0.00    +0.000 N 
ATOM      6  C   UNL     1       8.241  -0.483  21.476  0.00  0.00    +0.000 C 
ATOM      7  C   UNL     1       7.683   0.359  20.623  0.00  0.00    +0.000 A 
ATOM      8  C   UNL     1       7.634   0.024  19.230  0.00  0.00    +0.000 A 
ATOM      9  C   UNL     1       6.526   0.175  18.277  0.00  0.00    +0.000 A 
ATOM     10  C   UNL     1       5.559   1.112  18.960  0.00  0.00    +0.000 A 
ATOM     11  C   UNL     1       5.455   1.792  20.204  0.00  0.00    +0.000 A 
ATOM     12  C   UNL     1       6.669   1.444  21.008  0.00  0.00    +0.000 A 
ATOM     13  C   UNL     1       7.223   2.191  22.056  0.00  0.00    +0.000 C 
ATOM     14  C   UNL     1       7.586   1.165  23.222  0.00  0.00    +0.000 C 
ENDROOT
BRANCH   1  20
ATOM     15  C   UNL     1       6.780  -2.470  24.395  0.00  0.00    +0.000 A 
ATOM     16  N   UNL     1       6.396  -3.444  25.276  0.00  0.00    +0.000 NA
ATOM     17  C   UNL     1       7.175  -3.829  26.156  0.00  0.00    +0.000 A 
ATOM     18  C   UNL     1       7.644  -5.241  26.242  0.00  0.00    +0.000 C 
ATOM     19  S   UNL     1       8.615  -2.756  26.164  0.00  0.00    +0.000 S 
ATOM     20  C   UNL     1       8.092  -2.008  24.542  0.00  0.00    +0.000 A 
BRANCH  15  24
ATOM     21  C   UNL     1       5.673  -5.777  22.114  0.00  0.00    +0.000 A 
ATOM     22  C   UNL     1       4.736  -4.885  22.905  0.00  0.00    +0.000 A 
ATOM     23  C   UNL     1       4.921  -3.488  23.274  0.00  0.00    +0.000 A 
ATOM     24  C   UNL     1       6.368  -3.016  22.976  0.00  0.00    +0.000 A 
ATOM     25  C   UNL     1       7.411  -3.738  22.266  0.00  0.00    +0.000 A 
ATOM     26  C   UNL     1       7.027  -5.252  22.002  0.00  0.00    +0.000 A 
ENDBRANCH  15  24
ENDBRANCH   1  20
BRANCH  13  27
ATOM     27  C   UNL     1       6.642   3.335  22.767  0.00  0.00    +0.000 A 
ATOM     28  C   UNL     1       7.112   4.614  22.123  0.00  0.00    +0.000 A 
ATOM     29  C   UNL     1       7.726   5.759  22.777  0.00  0.00    +0.000 A 
ATOM     30  C   UNL     1       7.685   5.445  24.268  0.00  0.00    +0.000 A 
ATOM     31  C   UNL     1       7.353   4.404  25.125  0.00  0.00    +0.000 A 
ATOM     32  C   UNL     1       6.513   3.411  24.220  0.00  0.00    +0.000 A 
ENDBRANCH  13  27
TORSDOF 3
ENDMDL
MODEL 2
REMARK VINA RESULT:      -8.2      1.610      2.309
REMARK  Name = 
REMARK  4 active torsions:
REMARK  status: ('A' for Active; 'I' for Inactive)
REMARK    1  A    between atoms: C_7  and  C_8
REMARK    2  A    between atoms: C_10  and  C_11
REMARK    3  A    between atoms: C_16  and  N_17
REMARK    4  A    between atoms: C_35  and  C_37
REMARK                            x       y       z     vdW  Elec       q    Type
REMARK                         _______ _______ _______ _____ _____    ______ ____
ROOT
ATOM      1  N   UNL     1       8.961  -2.463  25.339  0.00  0.00    +0.000 N 
ATOM      2  H   UNL     1       9.583  -2.882  25.936  0.00  0.00    +0.000 HD
ATOM      3  C   UNL     1       9.474  -2.495  24.080  0.00  0.00    +0.000 C 
ATOM      4  O   UNL     1      10.452  -3.137  23.812  0.00  0.00    +0.000 OA
ATOM      5  N   UNL     1       9.147  -1.353  23.460  0.00  0.00    +0.000 N 
ATOM      6  C   UNL     1       8.103  -1.520  22.354  0.00  0.00    +0.000 C 
ATOM      7  C   UNL     1       7.959  -0.365  21.727  0.00  0.00    +0.000 A 
ATOM      8  C   UNL     1       7.393  -0.342  20.411  0.00  0.00    +0.000 A 
ATOM      9  C   UNL     1       6.395   0.577  19.845  0.00  0.00    +0.000 A 
ATOM     10  C   UNL     1       6.356   1.739  20.807  0.00  0.00    +0.000 A 
ATOM     11  C   UNL     1       6.969   2.108  22.036  0.00  0.00    +0.000 A 
ATOM     12  C   UNL     1       7.899   1.001  22.423  0.00  0.00    +0.000 A 
ATOM     13  C   UNL     1       9.015   1.099  23.265  0.00  0.00    +0.000 C 
ATOM     14  C   UNL     1       8.974  -0.159  24.245  0.00  0.00    +0.000 C 
ENDROOT
BRANCH   1  20
ATOM     15  C   UNL     1       6.526  -2.927  25.678  0.00  0.00    +0.000 A 
ATOM     16  N   UNL     1       5.940  -3.773  26.579  0.00  0.00    +0.000 NA
ATOM     17  C   UNL     1       6.571  -4.737  27.029  0.00  0.00    +0.000 A 
ATOM     18  C   UNL     1       6.126  -6.145  26.827  0.00  0.00    +0.000 C 
ATOM     19  S   UNL     1       8.282  -4.606  26.498  0.00  0.00    +0.000 S 
ATOM     20  C   UNL     1       7.826  -3.265  25.290  0.00  0.00    +0.000 A 
BRANCH  15  24
ATOM     21  C   UNL     1       3.204  -4.511  23.723  0.00  0.00    +0.000 A 
ATOM     22  C   UNL     1       3.177  -3.625  24.954  0.00  0.00    +0.000 A 
ATOM     23  C   UNL     1       4.164  -2.642  25.376  0.00  0.00    +0.000 A 
ATOM     24  C   UNL     1       5.461  -2.749  24.532  0.00  0.00    +0.000 A 
ATOM     25  C   UNL     1       5.686  -3.562  23.348  0.00  0.00    +0.000 A 
ATOM     26  C   UNL     1       4.514  -4.596  23.091  0.00  0.00    +0.000 A 
ENDBRANCH  15  24
ENDBRANCH   1  20
BRANCH  13  27
ATOM     27  C   UNL     1       9.403   2.210  24.140  0.00  0.00    +0.000 A 
ATOM     28  C   UNL     1       8.377   2.364  25.234  0.00  0.00    +0.000 A 
ATOM     29  C   UNL     1       7.676   3.577  25.624  0.00  0.00    +0.000 A 
ATOM     30  C   UNL     1       8.283   4.688  24.774  0.00  0.00    +0.000 A 
ATOM     31  C   UNL     1       9.178   4.853  23.724  0.00  0.00    +0.000 A 
ATOM     32  C   UNL     1       9.954   3.474  23.657  0.00  0.00    +0.000 A 
ENDBRANCH  13  27
TORSDOF 3
ENDMDL
MODEL 3
REMARK VINA RESULT:      -7.9      2.534      4.147
REMARK  Name = 
REMARK  4 active torsions:
REMARK  status: ('A' for Active; 'I' for Inactive)
REMARK    1  A    between atoms: C_7  and  C_8
REMARK    2  A    between atoms: C_10  and  C_11
REMARK    3  A    between atoms: C_16  and  N_17
REMARK    4  A    between atoms: C_35  and  C_37
REMARK                            x       y       z     vdW  Elec       q    Type
REMARK                         _______ _______ _______ _____ _____    ______ ____
ROOT
ATOM      1  N   UNL     1       7.799  -3.471  24.449  0.00  0.00    +0.000 N 
ATOM      2  H   UNL     1       8.303  -4.124  24.935  0.00  0.00    +0.000 HD
ATOM      3  C   UNL     1       7.737  -3.849  23.144  0.00  0.00    +0.000 C 
ATOM      4  O   UNL     1       8.103  -4.933  22.782  0.00  0.00    +0.000 OA
ATOM      5  N   UNL     1       7.814  -2.750  22.380  0.00  0.00    +0.000 N 
ATOM      6  C   UNL     1       6.505  -2.387  21.676  0.00  0.00    +0.000 C 
ATOM      7  C   UNL     1       6.730  -1.378  20.853  0.00  0.00    +0.000 A 
ATOM      8  C   UNL     1       5.818  -1.126  19.777  0.00  0.00    +0.000 A 
ATOM      9  C   UNL     1       5.272   0.152  19.302  0.00  0.00    +0.000 A 
ATOM     10  C   UNL     1       6.157   1.202  19.927  0.00  0.00    +0.000 A 
ATOM     11  C   UNL     1       7.268   1.250  20.814  0.00  0.00    +0.000 A 
ATOM     12  C   UNL     1       7.603  -0.161  21.188  0.00  0.00    +0.000 A 
ATOM     13  C   UNL     1       8.840  -0.636  21.642  0.00  0.00    +0.000 C 
ATOM     14  C   UNL     1       8.545  -1.610  22.870  0.00  0.00    +0.000 C 
ENDROOT
BRANCH   1  20
ATOM     15  C   UNL     1       5.916  -2.791  25.949  0.00  0.00    +0.000 A 
ATOM     16  N   UNL     1       5.298  -3.527  26.924  0.00  0.00    +0.000 NA
ATOM     17  C   UNL     1       5.308  -4.763  26.869  0.00  0.00    +0.000 A 
ATOM     18  C   UNL     1       4.056  -5.566  26.773  0.00  0.00    +0.000 C 
ATOM     19  S   UNL     1       6.408  -5.275  25.546  0.00  0.00    +0.000 S 
ATOM     20  C   UNL     1       6.488  -3.529  24.908  0.00  0.00    +0.000 A 
BRANCH  15  24
ATOM     21  C   UNL     1       4.724   1.183  26.344  0.00  0.00    +0.000 A 
ATOM     22  C   UNL     1       5.711   0.644  25.327  0.00  0.00    +0.000 A 
ATOM     23  C   UNL     1       5.793  -0.702  24.778  0.00  0.00    +0.000 A 
ATOM     24  C   UNL     1       4.872  -1.681  25.551  0.00  0.00    +0.000 A 
ATOM     25  C   UNL     1       3.893  -1.358  26.577  0.00  0.00    +0.000 A 
ATOM     26  C   UNL     1       4.001   0.143  27.067  0.00  0.00    +0.000 A 
ENDBRANCH  15  24
ENDBRANCH   1  20
BRANCH  13  27
ATOM     27  C   UNL     1      10.007   0.135  22.082  0.00  0.00    +0.000 A 
ATOM     28  C   UNL     1      10.458  -0.367  23.430  0.00  0.00    +0.000 A 
ATOM     29  C   UNL     1      10.701   0.417  24.630  0.00  0.00    +0.000 A 
ATOM     30  C   UNL     1      10.522   1.871  24.207  0.00  0.00    +0.000 A 
ATOM     31  C   UNL     1      10.113   2.614  23.107  0.00  0.00    +0.000 A 
ATOM     32  C   UNL     1      10.143   1.579  21.909  0.00  0.00    +0.000 A 
ENDBRANCH  13  27
TORSDOF 3
ENDMDL
MODEL 4
REMARK VINA RESULT:      -7.9      2.434      7.315
REMARK  Name = 
REMARK  4 active torsions:
REMARK  status: ('A' for Active; 'I' for Inactive)
REMARK    1  A    between atoms: C_7  and  C_8
REMARK    2  A    between atoms: C_10  and  C_11
REMARK    3  A    between atoms: C_16  and  N_17
REMARK    4  A    between atoms: C_35  and  C_37
REMARK                            x       y       z     vdW  Elec       q    Type
REMARK                         _______ _______ _______ _____ _____    ______ ____
ROOT
ATOM      1  N   UNL     1       6.705  -0.247  22.216  0.00  0.00    +0.000 N 
ATOM      2  H   UNL     1       6.408   0.251  21.453  0.00  0.00    +0.000 HD
ATOM      3  C   UNL     1       7.735  -1.051  21.840  0.00  0.00    +0.000 C 
ATOM      4  O   UNL     1       8.259  -0.947  20.766  0.00  0.00    +0.000 OA
ATOM      5  N   UNL     1       7.630  -2.212  22.502  0.00  0.00    +0.000 N 
ATOM      6  C   UNL     1       8.700  -2.416  23.577  0.00  0.00    +0.000 C 
ATOM      7  C   UNL     1       8.582  -3.638  24.067  0.00  0.00    +0.000 A 
ATOM      8  C   UNL     1       9.692  -4.235  24.751  0.00  0.00    +0.000 A 
ATOM      9  C   UNL     1       9.705  -5.012  25.997  0.00  0.00    +0.000 A 
ATOM     10  C   UNL     1       8.262  -5.391  26.228  0.00  0.00    +0.000 A 
ATOM     11  C   UNL     1       7.004  -5.167  25.605  0.00  0.00    +0.000 A 
ATOM     12  C   UNL     1       7.247  -4.320  24.394  0.00  0.00    +0.000 A 
ATOM     13  C   UNL     1       6.432  -4.226  23.259  0.00  0.00    +0.000 C 
ATOM     14  C   UNL     1       6.324  -2.679  22.887  0.00  0.00    +0.000 C 
ENDROOT
BRANCH   1  20
ATOM     15  C   UNL     1       6.588   1.423  24.075  0.00  0.00    +0.000 A 
ATOM     16  N   UNL     1       6.819   2.772  24.021  0.00  0.00    +0.000 NA
ATOM     17  C   UNL     1       7.544   3.243  23.137  0.00  0.00    +0.000 A 
ATOM     18  C   UNL     1       8.800   3.984  23.448  0.00  0.00    +0.000 C 
ATOM     19  S   UNL     1       7.932   1.949  21.955  0.00  0.00    +0.000 S 
ATOM     20  C   UNL     1       7.258   0.659  23.114  0.00  0.00    +0.000 A 
BRANCH  15  24
ATOM     21  C   UNL     1       8.049  -1.400  26.770  0.00  0.00    +0.000 A 
ATOM     22  C   UNL     1       8.846  -0.276  26.135  0.00  0.00    +0.000 A 
ATOM     23  C   UNL     1       8.358   1.002  25.637  0.00  0.00    +0.000 A 
ATOM     24  C   UNL     1       6.808   1.031  25.584  0.00  0.00    +0.000 A 
ATOM     25  C   UNL     1       5.883   0.037  26.105  0.00  0.00    +0.000 A 
ATOM     26  C   UNL     1       6.612  -1.295  26.551  0.00  0.00    +0.000 A 
ENDBRANCH  15  24
ENDBRANCH   1  20
BRANCH  13  27
ATOM     27  C   UNL     1       5.065  -4.724  23.075  0.00  0.00    +0.000 A 
ATOM     28  C   UNL     1       4.113  -3.886  23.891  0.00  0.00    +0.000 A 
ATOM     29  C   UNL     1       3.118  -4.353  24.843  0.00  0.00    +0.000 A 
ATOM     30  C   UNL     1       3.154  -5.874  24.754  0.00  0.00    +0.000 A 
ATOM     31  C   UNL     1       3.889  -6.886  24.149  0.00  0.00    +0.000 A 
ATOM     32  C   UNL     1       4.714  -6.141  23.020  0.00  0.00    +0.000 A 
ENDBRANCH  13  27
TORSDOF 3
ENDMDL
MODEL 5
REMARK VINA RESULT:      -7.8      1.900      2.724
REMARK  Name = 
REMARK  4 active torsions:
REMARK  status: ('A' for Active; 'I' for Inactive)
REMARK    1  A    between atoms: C_7  and  C_8
REMARK    2  A    between atoms: C_10  and  C_11
REMARK    3  A    between atoms: C_16  and  N_17
REMARK    4  A    between atoms: C_35  and  C_37
REMARK                            x       y       z     vdW  Elec       q    Type
REMARK                         _______ _______ _______ _____ _____    ______ ____
ROOT
ATOM      1  N   UNL     1       8.682  -2.424  25.647  0.00  0.00    +0.000 N 
ATOM      2  H   UNL     1       9.247  -2.886  26.269  0.00  0.00    +0.000 HD
ATOM      3  C   UNL     1       9.166  -2.617  24.391  0.00  0.00    +0.000 C 
ATOM      4  O   UNL     1      10.038  -3.410  24.164  0.00  0.00    +0.000 OA
ATOM      5  N   UNL     1       8.997  -1.485  23.693  0.00  0.00    +0.000 N 
ATOM      6  C   UNL     1       7.923  -1.577  22.607  0.00  0.00    +0.000 C 
ATOM      7  C   UNL     1       7.937  -0.459  21.901  0.00  0.00    +0.000 A 
ATOM      8  C   UNL     1       7.359  -0.445  20.589  0.00  0.00    +0.000 A 
ATOM      9  C   UNL     1       6.495   0.566  19.966  0.00  0.00    +0.000 A 
ATOM     10  C   UNL     1       6.637   1.785  20.843  0.00  0.00    +0.000 A 
ATOM     11  C   UNL     1       7.316   2.147  22.039  0.00  0.00    +0.000 A 
ATOM     12  C   UNL     1       8.084   0.946  22.499  0.00  0.00    +0.000 A 
ATOM     13  C   UNL     1       9.215   0.940  23.326  0.00  0.00    +0.000 C 
ATOM     14  C   UNL     1       9.009  -0.227  24.393  0.00  0.00    +0.000 C 
ENDROOT
BRANCH   1  20
ATOM     15  C   UNL     1       6.731  -3.559  24.568  0.00  0.00    +0.000 A 
ATOM     16  N   UNL     1       5.446  -3.103  24.442  0.00  0.00    +0.000 NA
ATOM     17  C   UNL     1       5.002  -2.268  25.240  0.00  0.00    +0.000 A 
ATOM     18  C   UNL     1       3.827  -2.548  26.113  0.00  0.00    +0.000 C 
ATOM     19  S   UNL     1       6.347  -1.684  26.276  0.00  0.00    +0.000 S 
ATOM     20  C   UNL     1       7.444  -3.056  25.661  0.00  0.00    +0.000 A 
BRANCH  15  24
ATOM     21  C   UNL     1       4.221  -6.871  24.259  0.00  0.00    +0.000 A 
ATOM     22  C   UNL     1       4.737  -6.032  23.107  0.00  0.00    +0.000 A 
ATOM     23  C   UNL     1       5.959  -5.243  23.045  0.00  0.00    +0.000 A 
ATOM     24  C   UNL     1       6.623  -5.125  24.442  0.00  0.00    +0.000 A 
ATOM     25  C   UNL     1       6.250  -5.818  25.665  0.00  0.00    +0.000 A 
ATOM     26  C   UNL     1       4.868  -6.580  25.532  0.00  0.00    +0.000 A 
ENDBRANCH  15  24
ENDBRANCH   1  20
BRANCH  13  27
ATOM     27  C   UNL     1       9.771   2.042  24.118  0.00  0.00    +0.000 A 
ATOM     28  C   UNL     1       8.719   2.553  25.070  0.00  0.00    +0.000 A 
ATOM     29  C   UNL     1       8.284   3.928  25.251  0.00  0.00    +0.000 A 
ATOM     30  C   UNL     1       9.199   4.764  24.363  0.00  0.00    +0.000 A 
ATOM     31  C   UNL     1      10.193   4.597  23.407  0.00  0.00    +0.000 A 
ATOM     32  C   UNL     1      10.636   3.085  23.571  0.00  0.00    +0.000 A 
ENDBRANCH  13  27
TORSDOF 3
ENDMDL
MODEL 6
REMARK VINA RESULT:      -7.7      3.934      8.396
REMARK  Name = 
REMARK  4 active torsions:
REMARK  status: ('A' for Active; 'I' for Inactive)
REMARK    1  A    between atoms: C_7  and  C_8
REMARK    2  A    between atoms: C_10  and  C_11
REMARK    3  A    between atoms: C_16  and  N_17
REMARK    4  A    between atoms: C_35  and  C_37
REMARK                            x       y       z     vdW  Elec       q    Type
REMARK                         _______ _______ _______ _____ _____    ______ ____
ROOT
ATOM      1  N   UNL     1       8.237  -3.920  24.044  0.00  0.00    +0.000 N 
ATOM      2  H   UNL     1       8.755  -3.939  23.237  0.00  0.00    +0.000 HD
ATOM      3  C   UNL     1       8.605  -4.971  24.824  0.00  0.00    +0.000 C 
ATOM      4  O   UNL     1       9.563  -5.644  24.567  0.00  0.00    +0.000 OA
ATOM      5  N   UNL     1       7.511  -5.444  25.439  0.00  0.00    +0.000 N 
ATOM      6  C   UNL     1       7.470  -5.162  26.942  0.00  0.00    +0.000 C 
ATOM      7  C   UNL     1       6.426  -5.786  27.462  0.00  0.00    +0.000 A 
ATOM      8  C   UNL     1       6.392  -6.051  28.870  0.00  0.00    +0.000 A 
ATOM      9  C   UNL     1       5.279  -5.899  29.817  0.00  0.00    +0.000 A 
ATOM     10  C   UNL     1       4.052  -5.766  28.948  0.00  0.00    +0.000 A 
ATOM     11  C   UNL     1       3.747  -5.721  27.560  0.00  0.00    +0.000 A 
ATOM     12  C   UNL     1       5.038  -5.849  26.812  0.00  0.00    +0.000 A 
ATOM     13  C   UNL     1       5.204  -6.302  25.497  0.00  0.00    +0.000 C 
ATOM     14  C   UNL     1       6.234  -5.313  24.788  0.00  0.00    +0.000 C 
ENDROOT
BRANCH   1  20
ATOM     15  C   UNL     1       7.823  -1.686  25.093  0.00  0.00    +0.000 A 
ATOM     16  N   UNL     1       8.315  -0.466  24.715  0.00  0.00    +0.000 NA
ATOM     17  C   UNL     1       9.374  -0.392  24.079  0.00  0.00    +0.000 A 
ATOM     18  C   UNL     1      10.568   0.331  24.603  0.00  0.00    +0.000 C 
ATOM     19  S   UNL     1       9.881  -2.048  23.606  0.00  0.00    +0.000 S 
ATOM     20  C   UNL     1       8.618  -2.787  24.755  0.00  0.00    +0.000 A 
BRANCH  15  24
ATOM     21  C   UNL     1       5.446   0.277  27.897  0.00  0.00    +0.000 A 
ATOM     22  C   UNL     1       5.073  -0.979  27.133  0.00  0.00    +0.000 A 
ATOM     23  C   UNL     1       5.961  -1.988  26.572  0.00  0.00    +0.000 A 
ATOM     24  C   UNL     1       7.439  -1.520  26.611  0.00  0.00    +0.000 A 
ATOM     25  C   UNL     1       7.979  -0.336  27.259  0.00  0.00    +0.000 A 
ATOM     26  C   UNL     1       6.847   0.652  27.758  0.00  0.00    +0.000 A 
ENDBRANCH  15  24
ENDBRANCH   1  20
BRANCH  13  27
ATOM     27  C   UNL     1       4.177  -6.528  24.474  0.00  0.00    +0.000 A 
ATOM     28  C   UNL     1       3.688  -5.199  23.956  0.00  0.00    +0.000 A 
ATOM     29  C   UNL     1       2.311  -4.743  23.852  0.00  0.00    +0.000 A 
ATOM     30  C   UNL     1       1.457  -5.937  24.263  0.00  0.00    +0.000 A 
ATOM     31  C   UNL     1       1.601  -7.218  24.781  0.00  0.00    +0.000 A 
ATOM     32  C   UNL     1       3.136  -7.548  24.575  0.00  0.00    +0.000 A 
ENDBRANCH  13  27
TORSDOF 3
ENDMDL
MODEL 7
REMARK VINA RESULT:      -7.3      1.838      2.295
REMARK  Name = 
REMARK  4 active torsions:
REMARK  status: ('A' for Active; 'I' for Inactive)
REMARK    1  A    between atoms: C_7  and  C_8
REMARK    2  A    between atoms: C_10  and  C_11
REMARK    3  A    between atoms: C_16  and  N_17
REMARK    4  A    between atoms: C_35  and  C_37
REMARK                            x       y       z     vdW  Elec       q    Type
REMARK                         _______ _______ _______ _____ _____    ______ ____
ROOT
ATOM      1  N   UNL     1       8.718  -1.506  24.701  0.00  0.00    +0.000 N 
ATOM      2  H   UNL     1       9.421  -1.710  25.319  0.00  0.00    +0.000 HD
ATOM      3  C   UNL     1       9.079  -1.947  23.467  0.00  0.00    +0.000 C 
ATOM      4  O   UNL     1      10.042  -2.643  23.301  0.00  0.00    +0.000 OA
ATOM      5  N   UNL     1       8.638  -1.067  22.557  0.00  0.00    +0.000 N 
ATOM      6  C   UNL     1       7.478  -1.582  21.702  0.00  0.00    +0.000 C 
ATOM      7  C   UNL     1       7.217  -0.693  20.760  0.00  0.00    +0.000 A 
ATOM      8  C   UNL     1       6.499  -1.097  19.587  0.00  0.00    +0.000 A 
ATOM      9  C   UNL     1       5.407  -0.409  18.884  0.00  0.00    +0.000 A 
ATOM     10  C   UNL     1       5.437   1.002  19.417  0.00  0.00    +0.000 A 
ATOM     11  C   UNL     1       6.178   1.749  20.374  0.00  0.00    +0.000 A 
ATOM     12  C   UNL     1       7.188   0.826  20.980  0.00  0.00    +0.000 A 
ATOM     13  C   UNL     1       8.391   1.189  21.599  0.00  0.00    +0.000 C 
ATOM     14  C   UNL     1       8.514   0.318  22.929  0.00  0.00    +0.000 C 
ENDROOT
BRANCH   1  20
ATOM     15  C   UNL     1       6.758  -2.981  24.204  0.00  0.00    +0.000 A 
ATOM     16  N   UNL     1       5.426  -2.700  24.346  0.00  0.00    +0.000 NA
ATOM     17  C   UNL     1       5.055  -1.842  25.155  0.00  0.00    +0.000 A 
ATOM     18  C   UNL     1       4.154  -2.164  26.300  0.00  0.00    +0.000 C 
ATOM     19  S   UNL     1       6.498  -0.989  25.798  0.00  0.00    +0.000 S 
ATOM     20  C   UNL     1       7.616  -2.278  25.056  0.00  0.00    +0.000 A 
BRANCH  15  24
ATOM     21  C   UNL     1       4.690  -6.597  24.290  0.00  0.00    +0.000 A 
ATOM     22  C   UNL     1       5.075  -5.819  23.047  0.00  0.00    +0.000 A 
ATOM     23  C   UNL     1       6.183  -4.891  22.874  0.00  0.00    +0.000 A 
ATOM     24  C   UNL     1       6.851  -4.552  24.232  0.00  0.00    +0.000 A 
ATOM     25  C   UNL     1       6.591  -5.163  25.526  0.00  0.00    +0.000 A 
ATOM     26  C   UNL     1       5.316  -6.102  25.509  0.00  0.00    +0.000 A 
ENDBRANCH  15  24
ENDBRANCH   1  20
BRANCH  13  27
ATOM     27  C   UNL     1       8.837   2.523  22.013  0.00  0.00    +0.000 A 
ATOM     28  C   UNL     1      10.272   2.451  22.470  0.00  0.00    +0.000 A 
ATOM     29  C   UNL     1      10.827   2.938  23.722  0.00  0.00    +0.000 A 
ATOM     30  C   UNL     1       9.676   3.648  24.427  0.00  0.00    +0.000 A 
ATOM     31  C   UNL     1       8.311   3.857  24.283  0.00  0.00    +0.000 A 
ATOM     32  C   UNL     1       8.015   3.456  22.780  0.00  0.00    +0.000 A 
ENDBRANCH  13  27
TORSDOF 3
ENDMDL
MODEL 8
REMARK VINA RESULT:      -7.3      2.615      4.050
REMARK  Name = 
REMARK  4 active torsions:
REMARK  status: ('A' for Active; 'I' for Inactive)
REMARK    1  A    between atoms: C_7  and  C_8
REMARK    2  A    between atoms: C_10  and  C_11
REMARK    3  A    between atoms: C_16  and  N_17
REMARK    4  A    between atoms: C_35  and  C_37
REMARK                            x       y       z     vdW  Elec       q    Type
REMARK                         _______ _______ _______ _____ _____    ______ ____
ROOT
ATOM      1  N   UNL     1       8.188  -3.842  25.469  0.00  0.00    +0.000 N 
ATOM      2  H   UNL     1       8.745  -4.336  26.073  0.00  0.00    +0.000 HD
ATOM      3  C   UNL     1       8.256  -4.421  24.240  0.00  0.00    +0.000 C 
ATOM      4  O   UNL     1       8.784  -5.484  24.070  0.00  0.00    +0.000 OA
ATOM      5  N   UNL     1       8.231  -3.452  23.314  0.00  0.00    +0.000 N 
ATOM      6  C   UNL     1       6.930  -3.390  22.511  0.00  0.00    +0.000 C 
ATOM      7  C   UNL     1       7.068  -2.497  21.547  0.00  0.00    +0.000 A 
ATOM      8  C   UNL     1       6.196  -2.545  20.410  0.00  0.00    +0.000 A 
ATOM      9  C   UNL     1       5.514  -1.444  19.716  0.00  0.00    +0.000 A 
ATOM     10  C   UNL     1       6.211  -0.196  20.199  0.00  0.00    +0.000 A 
ATOM     11  C   UNL     1       7.250   0.143  21.109  0.00  0.00    +0.000 A 
ATOM     12  C   UNL     1       7.748  -1.132  21.716  0.00  0.00    +0.000 A 
ATOM     13  C   UNL     1       9.008  -1.352  22.287  0.00  0.00    +0.000 C 
ATOM     14  C   UNL     1       8.772  -2.159  23.643  0.00  0.00    +0.000 C 
ENDROOT
BRANCH   1  20
ATOM     15  C   UNL     1       6.052  -3.085  26.529  0.00  0.00    +0.000 A 
ATOM     16  N   UNL     1       5.487  -3.512  27.700  0.00  0.00    +0.000 NA
ATOM     17  C   UNL     1       5.746  -4.638  28.141  0.00  0.00    +0.000 A 
ATOM     18  C   UNL     1       4.695  -5.677  28.340  0.00  0.00    +0.000 C 
ATOM     19  S   UNL     1       7.066  -5.355  27.157  0.00  0.00    +0.000 S 
ATOM     20  C   UNL     1       6.872  -4.015  25.881  0.00  0.00    +0.000 A 
BRANCH  15  24
ATOM     21  C   UNL     1       1.925  -2.663  26.140  0.00  0.00    +0.000 A 
ATOM     22  C   UNL     1       2.841  -1.769  26.953  0.00  0.00    +0.000 A 
ATOM     23  C   UNL     1       4.259  -1.509  26.748  0.00  0.00    +0.000 A 
ATOM     24  C   UNL     1       4.861  -2.477  25.697  0.00  0.00    +0.000 A 
ATOM     25  C   UNL     1       4.152  -3.424  24.852  0.00  0.00    +0.000 A 
ATOM     26  C   UNL     1       2.634  -3.592  25.270  0.00  0.00    +0.000 A 
ENDBRANCH  15  24
ENDBRANCH   1  20
BRANCH  13  27
ATOM     27  C   UNL     1      10.033  -0.366  22.643  0.00  0.00    +0.000 A 
ATOM     28  C   UNL     1      10.253  -0.390  24.135  0.00  0.00    +0.000 A 
ATOM     29  C   UNL     1      10.230   0.740  25.050  0.00  0.00    +0.000 A 
ATOM     30  C   UNL     1      10.058   1.972  24.170  0.00  0.00    +0.000 A 
ATOM     31  C   UNL     1       9.820   2.303  22.842  0.00  0.00    +0.000 A 
ATOM     32  C   UNL     1      10.124   0.966  22.050  0.00  0.00    +0.000 A 
ENDBRANCH  13  27
TORSDOF 3
ENDMDL
MODEL 9
REMARK VINA RESULT:      -7.3      2.570      7.251
REMARK  Name = 
REMARK  4 active torsions:
REMARK  status: ('A' for Active; 'I' for Inactive)
REMARK    1  A    between atoms: C_7  and  C_8
REMARK    2  A    between atoms: C_10  and  C_11
REMARK    3  A    between atoms: C_16  and  N_17
REMARK    4  A    between atoms: C_35  and  C_37
REMARK                            x       y       z     vdW  Elec       q    Type
REMARK                         _______ _______ _______ _____ _____    ______ ____
ROOT
ATOM      1  N   UNL     1       8.994  -1.579  25.018  0.00  0.00    +0.000 N 
ATOM      2  H   UNL     1       9.945  -1.701  25.042  0.00  0.00    +0.000 HD
ATOM      3  C   UNL     1       8.555  -1.317  26.279  0.00  0.00    +0.000 C 
ATOM      4  O   UNL     1       9.315  -1.092  27.179  0.00  0.00    +0.000 OA
ATOM      5  N   UNL     1       7.367  -1.916  26.446  0.00  0.00    +0.000 N 
ATOM      6  C   UNL     1       6.185  -0.947  26.517  0.00  0.00    +0.000 C 
ATOM      7  C   UNL     1       5.094  -1.630  26.817  0.00  0.00    +0.000 A 
ATOM      8  C   UNL     1       3.960  -0.945  27.363  0.00  0.00    +0.000 A 
ATOM      9  C   UNL     1       2.536  -1.096  27.033  0.00  0.00    +0.000 A 
ATOM     10  C   UNL     1       2.456  -2.395  26.268  0.00  0.00    +0.000 A 
ATOM     11  C   UNL     1       3.350  -3.397  25.801  0.00  0.00    +0.000 A 
ATOM     12  C   UNL     1       4.731  -2.996  26.219  0.00  0.00    +0.000 A 
ATOM     13  C   UNL     1       5.834  -3.842  26.391  0.00  0.00    +0.000 C 
ATOM     14  C   UNL     1       7.086  -3.123  25.714  0.00  0.00    +0.000 C 
ENDROOT
BRANCH   1  20
ATOM     15  C   UNL     1       8.653  -0.282  22.906  0.00  0.00    +0.000 A 
ATOM     16  N   UNL     1       9.464   0.673  22.355  0.00  0.00    +0.000 NA
ATOM     17  C   UNL     1      10.241   1.317  23.071  0.00  0.00    +0.000 A 
ATOM     18  C   UNL     1      10.155   2.800  23.205  0.00  0.00    +0.000 C 
ATOM     19  S   UNL     1      10.239   0.602  24.718  0.00  0.00    +0.000 S 
ATOM     20  C   UNL     1       8.741  -0.418  24.296  0.00  0.00    +0.000 A 
BRANCH  15  24
ATOM     21  C   UNL     1       6.021  -0.901  19.736  0.00  0.00    +0.000 A 
ATOM     22  C   UNL     1       6.192  -1.803  20.943  0.00  0.00    +0.000 A 
ATOM     23  C   UNL     1       6.652  -1.443  22.276  0.00  0.00    +0.000 A 
ATOM     24  C   UNL     1       7.225  -0.002  22.304  0.00  0.00    +0.000 A 
ATOM     25  C   UNL     1       7.187   0.989  21.241  0.00  0.00    +0.000 A 
ATOM     26  C   UNL     1       6.699   0.382  19.862  0.00  0.00    +0.000 A 
ENDBRANCH  15  24
ENDBRANCH   1  20
BRANCH  13  27
ATOM     27  C   UNL     1       5.979  -5.245  25.988  0.00  0.00    +0.000 A 
ATOM     28  C   UNL     1       6.146  -5.320  24.492  0.00  0.00    +0.000 A 
ATOM     29  C   UNL     1       5.391  -6.139  23.557  0.00  0.00    +0.000 A 
ATOM     30  C   UNL     1       4.475  -6.999  24.421  0.00  0.00    +0.000 A 
ATOM     31  C   UNL     1       4.095  -7.143  25.749  0.00  0.00    +0.000 A 
ATOM     32  C   UNL     1       5.198  -6.341  26.555  0.00  0.00    +0.000 A 
ENDBRANCH  13  27
TORSDOF 3
ENDMDL
