MODEL 1
REMARK VINA RESULT:      -8.7      0.000      0.000
REMARK  Name = 
REMARK  6 active torsions:
REMARK  status: ('A' for Active; 'I' for Inactive)
REMARK    1  A    between atoms: C_4  and  S_5
REMARK    2  A    between atoms: S_5  and  N_8
REMARK    3  A    between atoms: C_16  and  C_18
REMARK    4  A    between atoms: C_18  and  C_21
REMARK    5  A    between atoms: C_26  and  C_27
REMARK    6  A    between atoms: C_27  and  N_30
REMARK                            x       y       z     vdW  Elec       q    Type
REMARK                         _______ _______ _______ _____ _____    ______ ____
ROOT
ATOM      1  C   UNL     1       8.907  -1.115  23.901  0.00  0.00    +0.000 C 
ENDROOT
BRANCH   1   6
ATOM      2  N   UNL     1       6.691  -5.356  25.228  0.00  0.00    +0.000 NA
ATOM      3  C   UNL     1       7.119  -5.466  23.861  0.00  0.00    +0.000 C 
ATOM      4  C   UNL     1       7.779  -4.191  23.358  0.00  0.00    +0.000 C 
ATOM      5  N   UNL     1       8.486  -3.537  24.466  0.00  0.00    +0.000 N 
ATOM      6  C   UNL     1       9.285  -2.485  24.202  0.00  0.00    +0.000 C 
ATOM      7  O   UNL     1      10.424  -2.840  23.752  0.00  0.00    +0.000 OA
ATOM      8  C   UNL     1       8.929  -4.440  25.540  0.00  0.00    +0.000 C 
ATOM      9  C   UNL     1       7.809  -5.338  26.047  0.00  0.00    +0.000 C 
BRANCH   2  10
ATOM     10  S   UNL     1       5.322  -5.861  25.447  0.00  0.00    +0.000 S 
ATOM     11  O   UNL     1       4.434  -4.727  25.940  0.00  0.00    +0.000 OA
ATOM     12  O   UNL     1       5.333  -6.884  26.597  0.00  0.00    +0.000 OA
BRANCH  10  15
ATOM     13  C   UNL     1       1.562  -6.627  24.352  0.00  0.00    +0.000 A 
ATOM     14  S   UNL     1       2.893  -7.609  25.115  0.00  0.00    +0.000 S 
ATOM     15  C   UNL     1       4.224  -6.693  24.333  0.00  0.00    +0.000 A 
ATOM     16  C   UNL     1       3.642  -5.926  23.291  0.00  0.00    +0.000 A 
ATOM     17  C   UNL     1       2.135  -5.928  23.296  0.00  0.00    +0.000 A 
ENDBRANCH  10  15
ENDBRANCH   2  10
ENDBRANCH   1   6
BRANCH   1  18
ATOM     18  C   UNL     1       9.568   0.055  24.452  0.00  0.00    +0.000 A 
ATOM     19  C   UNL     1       8.534   0.922  25.130  0.00  0.00    +0.000 A 
ATOM     20  C   UNL     1       8.417   2.386  25.018  0.00  0.00    +0.000 A 
ATOM     21  C   UNL     1       9.277   2.908  23.817  0.00  0.00    +0.000 A 
ATOM     22  C   UNL     1      10.545   2.243  23.426  0.00  0.00    +0.000 A 
ATOM     23  C   UNL     1      10.732   0.768  23.961  0.00  0.00    +0.000 A 
BRANCH  21  24
ATOM     24  C   UNL     1       8.146   3.010  22.619  0.00  0.00    +0.000 C 
BRANCH  24  25
ATOM     25  N   UNL     1       7.459   1.857  22.370  0.00  0.00    +0.000 N 
ATOM     26  H   UNL     1       7.380   1.123  23.019  0.00  0.00    +0.000 HD
ATOM     27  C   UNL     1       7.578   1.263  21.143  0.00  0.00    +0.000 C 
ATOM     28  O   UNL     1       8.705   0.905  20.793  0.00  0.00    +0.000 OA
ATOM     29  N   UNL     1       6.499   0.778  20.523  0.00  0.00    +0.000 N 
ATOM     30  C   UNL     1       5.721   1.467  19.516  0.00  0.00    +0.000 C 
ATOM     31  C   UNL     1       6.004   0.898  18.118  0.00  0.00    +0.000 C 
ATOM     32  O   UNL     1       6.558  -0.337  18.159  0.00  0.00    +0.000 OA
ATOM     33  C   UNL     1       5.960  -1.158  19.099  0.00  0.00    +0.000 C 
ATOM     34  C   UNL     1       6.359  -0.700  20.487  0.00  0.00    +0.000 C 
ENDBRANCH  24  25
ENDBRANCH  21  24
ENDBRANCH   1  18
TORSDOF 6
ENDMDL
MODEL 2
REMARK VINA RESULT:      -8.5      1.568      1.679
REMARK  Name = 
REMARK  6 active torsions:
REMARK  status: ('A' for Active; 'I' for Inactive)
REMARK    1  A    between atoms: C_4  and  S_5
REMARK    2  A    between atoms: S_5  and  N_8
REMARK    3  A    between atoms: C_16  and  C_18
REMARK    4  A    between atoms: C_18  and  C_21
REMARK    5  A    between atoms: C_26  and  C_27
REMARK    6  A    between atoms: C_27  and  N_30
REMARK                            x       y       z     vdW  Elec       q    Type
REMARK                         _______ _______ _______ _____ _____    ______ ____
ROOT
ATOM      1  C   UNL     1       8.863  -1.523  23.741  0.00  0.00    +0.000 C 
ENDROOT
BRANCH   1   6
ATOM      2  N   UNL     1       5.844  -5.413  24.387  0.00  0.00    +0.000 NA
ATOM      3  C   UNL     1       6.666  -5.652  23.233  0.00  0.00    +0.000 C 
ATOM      4  C   UNL     1       7.601  -4.489  22.938  0.00  0.00    +0.000 C 
ATOM      5  N   UNL     1       7.995  -3.847  24.199  0.00  0.00    +0.000 N 
ATOM      6  C   UNL     1       8.958  -2.904  24.180  0.00  0.00    +0.000 C 
ATOM      7  O   UNL     1      10.129  -3.407  24.128  0.00  0.00    +0.000 OA
ATOM      8  C   UNL     1       7.963  -4.724  25.379  0.00  0.00    +0.000 C 
ATOM      9  C   UNL     1       6.640  -5.464  25.521  0.00  0.00    +0.000 C 
BRANCH   2  10
ATOM     10  S   UNL     1       4.426  -5.754  24.167  0.00  0.00    +0.000 S 
ATOM     11  O   UNL     1       4.254  -7.266  24.214  0.00  0.00    +0.000 OA
ATOM     12  O   UNL     1       4.022  -5.354  22.737  0.00  0.00    +0.000 OA
BRANCH  10  15
ATOM     13  C   UNL     1       2.884  -3.975  27.388  0.00  0.00    +0.000 A 
ATOM     14  S   UNL     1       2.912  -5.687  26.767  0.00  0.00    +0.000 S 
ATOM     15  C   UNL     1       2.978  -5.219  25.036  0.00  0.00    +0.000 A 
ATOM     16  C   UNL     1       2.643  -3.843  24.965  0.00  0.00    +0.000 A 
ATOM     17  C   UNL     1       2.559  -3.162  26.308  0.00  0.00    +0.000 A 
ENDBRANCH  10  15
ENDBRANCH   2  10
ENDBRANCH   1   6
BRANCH   1  18
ATOM     18  C   UNL     1       9.452  -0.399  24.447  0.00  0.00    +0.000 A 
ATOM     19  C   UNL     1       8.349   0.382  25.121  0.00  0.00    +0.000 A 
ATOM     20  C   UNL     1       8.205   1.847  25.137  0.00  0.00    +0.000 A 
ATOM     21  C   UNL     1       9.139   2.495  24.060  0.00  0.00    +0.000 A 
ATOM     22  C   UNL     1      10.450   1.893  23.708  0.00  0.00    +0.000 A 
ATOM     23  C   UNL     1      10.632   0.377  24.116  0.00  0.00    +0.000 A 
BRANCH  21  24
ATOM     24  C   UNL     1       8.100   2.691  22.792  0.00  0.00    +0.000 C 
BRANCH  24  25
ATOM     25  N   UNL     1       7.414   1.569  22.426  0.00  0.00    +0.000 N 
ATOM     26  H   UNL     1       7.327   0.775  23.001  0.00  0.00    +0.000 HD
ATOM     27  C   UNL     1       7.546   1.094  21.149  0.00  0.00    +0.000 C 
ATOM     28  O   UNL     1       8.678   0.768  20.780  0.00  0.00    +0.000 OA
ATOM     29  N   UNL     1       6.475   0.673  20.474  0.00  0.00    +0.000 N 
ATOM     30  C   UNL     1       5.709   1.458  19.528  0.00  0.00    +0.000 C 
ATOM     31  C   UNL     1       6.007   1.025  18.086  0.00  0.00    +0.000 C 
ATOM     32  O   UNL     1       6.559  -0.211  18.014  0.00  0.00    +0.000 OA
ATOM     33  C   UNL     1       5.949  -1.116  18.865  0.00  0.00    +0.000 C 
ATOM     34  C   UNL     1       6.333  -0.794  20.295  0.00  0.00    +0.000 C 
ENDBRANCH  24  25
ENDBRANCH  21  24
ENDBRANCH   1  18
TORSDOF 6
ENDMDL
MODEL 3
REMARK VINA RESULT:      -8.4      3.042      6.766
REMARK  Name = 
REMARK  6 active torsions:
REMARK  status: ('A' for Active; 'I' for Inactive)
REMARK    1  A    between atoms: C_4  and  S_5
REMARK    2  A    between atoms: S_5  and  N_8
REMARK    3  A    between atoms: C_16  and  C_18
REMARK    4  A    between atoms: C_18  and  C_21
REMARK    5  A    between atoms: C_26  and  C_27
REMARK    6  A    between atoms: C_27  and  N_30
REMARK                            x       y       z     vdW  Elec       q    Type
REMARK                         _______ _______ _______ _____ _____    ______ ____
ROOT
ATOM      1  C   UNL     1       7.281  -5.074  25.828  0.00  0.00    +0.000 C 
ENDROOT
BRANCH   1   6
ATOM      2  N   UNL     1       8.735  -0.600  24.236  0.00  0.00    +0.000 NA
ATOM      3  C   UNL     1       9.071  -0.728  25.628  0.00  0.00    +0.000 C 
ATOM      4  C   UNL     1       8.627  -2.061  26.209  0.00  0.00    +0.000 C 
ATOM      5  N   UNL     1       8.705  -3.098  25.172  0.00  0.00    +0.000 N 
ATOM      6  C   UNL     1       8.523  -4.386  25.520  0.00  0.00    +0.000 C 
ATOM      7  O   UNL     1       9.567  -4.902  26.040  0.00  0.00    +0.000 OA
ATOM      8  C   UNL     1       9.689  -2.840  24.110  0.00  0.00    +0.000 C 
ATOM      9  C   UNL     1       9.542  -1.453  23.500  0.00  0.00    +0.000 C 
BRANCH   2  10
ATOM     10  S   UNL     1       8.126   0.703  23.908  0.00  0.00    +0.000 S 
ATOM     11  O   UNL     1       7.717   1.412  25.192  0.00  0.00    +0.000 OA
ATOM     12  O   UNL     1       6.808   0.472  23.147  0.00  0.00    +0.000 OA
BRANCH  10  15
ATOM     13  C   UNL     1       9.953   4.250  23.898  0.00  0.00    +0.000 A 
ATOM     14  S   UNL     1       8.263   3.685  23.519  0.00  0.00    +0.000 S 
ATOM     15  C   UNL     1       8.770   2.056  22.963  0.00  0.00    +0.000 A 
ATOM     16  C   UNL     1      10.174   2.105  22.762  0.00  0.00    +0.000 A 
ATOM     17  C   UNL     1      10.822   3.369  23.266  0.00  0.00    +0.000 A 
ENDBRANCH  10  15
ENDBRANCH   2  10
ENDBRANCH   1   6
BRANCH   1  18
ATOM     18  C   UNL     1       6.291  -5.456  24.837  0.00  0.00    +0.000 A 
ATOM     19  C   UNL     1       7.005  -5.874  23.574  0.00  0.00    +0.000 A 
ATOM     20  C   UNL     1       6.641  -5.488  22.200  0.00  0.00    +0.000 A 
ATOM     21  C   UNL     1       5.632  -4.290  22.223  0.00  0.00    +0.000 A 
ATOM     22  C   UNL     1       4.637  -4.136  23.315  0.00  0.00    +0.000 A 
ATOM     23  C   UNL     1       4.948  -4.945  24.636  0.00  0.00    +0.000 A 
BRANCH  21  24
ATOM     24  C   UNL     1       6.642  -3.001  22.015  0.00  0.00    +0.000 C 
BRANCH  24  25
ATOM     25  N   UNL     1       6.028  -1.836  21.656  0.00  0.00    +0.000 N 
ATOM     26  H   UNL     1       5.179  -1.528  22.046  0.00  0.00    +0.000 HD
ATOM     27  C   UNL     1       5.981  -1.487  20.333  0.00  0.00    +0.000 C 
ATOM     28  O   UNL     1       5.408  -2.263  19.563  0.00  0.00    +0.000 OA
ATOM     29  N   UNL     1       6.220  -0.228  19.960  0.00  0.00    +0.000 N 
ATOM     30  C   UNL     1       7.490   0.290  19.497  0.00  0.00    +0.000 C 
ATOM     31  C   UNL     1       7.473   0.507  17.977  0.00  0.00    +0.000 C 
ATOM     32  O   UNL     1       6.218   0.578  17.473  0.00  0.00    +0.000 OA
ATOM     33  C   UNL     1       5.371   1.337  18.260  0.00  0.00    +0.000 C 
ATOM     34  C   UNL     1       5.048   0.573  19.527  0.00  0.00    +0.000 C 
ENDBRANCH  24  25
ENDBRANCH  21  24
ENDBRANCH   1  18
TORSDOF 6
ENDMDL
MODEL 4
REMARK VINA RESULT:      -8.1      2.166      3.810
REMARK  Name = 
REMARK  6 active torsions:
REMARK  status: ('A' for Active; 'I' for Inactive)
REMARK    1  A    between atoms: C_4  and  S_5
REMARK    2  A    between atoms: S_5  and  N_8
REMARK    3  A    between atoms: C_16  and  C_18
REMARK    4  A    between atoms: C_18  and  C_21
REMARK    5  A    between atoms: C_26  and  C_27
REMARK    6  A    between atoms: C_27  and  N_30
REMARK                            x       y       z     vdW  Elec       q    Type
REMARK                         _______ _______ _______ _____ _____    ______ ____
ROOT
ATOM      1  C   UNL     1       9.520  -0.914  23.886  0.00  0.00    +0.000 C 
ENDROOT
BRANCH   1   6
ATOM      2  N   UNL     1       7.013  -5.068  24.946  0.00  0.00    +0.000 NA
ATOM      3  C   UNL     1       7.241  -5.014  23.528  0.00  0.00    +0.000 C 
ATOM      4  C   UNL     1       7.975  -3.750  23.108  0.00  0.00    +0.000 C 
ATOM      5  N   UNL     1       8.894  -3.340  24.178  0.00  0.00    +0.000 N 
ATOM      6  C   UNL     1       9.769  -2.344  23.942  0.00  0.00    +0.000 C 
ATOM      7  O   UNL     1      10.790  -2.738  23.286  0.00  0.00    +0.000 OA
ATOM      8  C   UNL     1       9.365  -4.432  25.044  0.00  0.00    +0.000 C 
ATOM      9  C   UNL     1       8.223  -5.281  25.587  0.00  0.00    +0.000 C 
BRANCH   2  10
ATOM     10  S   UNL     1       5.635  -5.464  25.294  0.00  0.00    +0.000 S 
ATOM     11  O   UNL     1       4.916  -4.287  25.939  0.00  0.00    +0.000 OA
ATOM     12  O   UNL     1       5.675  -6.549  26.384  0.00  0.00    +0.000 OA
BRANCH  10  15
ATOM     13  C   UNL     1       1.770  -6.370  24.889  0.00  0.00    +0.000 A 
ATOM     14  S   UNL     1       3.297  -7.346  25.068  0.00  0.00    +0.000 S 
ATOM     15  C   UNL     1       4.349  -6.129  24.273  0.00  0.00    +0.000 A 
ATOM     16  C   UNL     1       3.494  -5.210  23.614  0.00  0.00    +0.000 A 
ATOM     17  C   UNL     1       2.034  -5.383  23.947  0.00  0.00    +0.000 A 
ENDBRANCH  10  15
ENDBRANCH   2  10
ENDBRANCH   1   6
BRANCH   1  18
ATOM     18  C   UNL     1       9.656  -0.106  22.687  0.00  0.00    +0.000 A 
ATOM     19  C   UNL     1       9.723   1.348  23.087  0.00  0.00    +0.000 A 
ATOM     20  C   UNL     1       9.007   2.463  22.445  0.00  0.00    +0.000 A 
ATOM     21  C   UNL     1       7.874   1.912  21.513  0.00  0.00    +0.000 A 
ATOM     22  C   UNL     1       8.023   0.624  20.790  0.00  0.00    +0.000 A 
ATOM     23  C   UNL     1       9.136  -0.346  21.354  0.00  0.00    +0.000 A 
BRANCH  21  24
ATOM     24  C   UNL     1       6.556   2.008  22.501  0.00  0.00    +0.000 C 
BRANCH  24  25
ATOM     25  N   UNL     1       6.293   0.882  23.228  0.00  0.00    +0.000 N 
ATOM     26  H   UNL     1       5.852   0.087  22.854  0.00  0.00    +0.000 HD
ATOM     27  C   UNL     1       5.817   1.010  24.505  0.00  0.00    +0.000 C 
ATOM     28  O   UNL     1       4.744   1.601  24.653  0.00  0.00    +0.000 OA
ATOM     29  N   UNL     1       6.296   0.237  25.482  0.00  0.00    +0.000 N 
ATOM     30  C   UNL     1       7.345   0.601  26.411  0.00  0.00    +0.000 C 
ATOM     31  C   UNL     1       6.766   0.913  27.798  0.00  0.00    +0.000 C 
ATOM     32  O   UNL     1       5.525   0.399  27.975  0.00  0.00    +0.000 OA
ATOM     33  C   UNL     1       5.409  -0.890  27.484  0.00  0.00    +0.000 C 
ATOM     34  C   UNL     1       5.408  -0.848  25.970  0.00  0.00    +0.000 C 
ENDBRANCH  24  25
ENDBRANCH  21  24
ENDBRANCH   1  18
TORSDOF 6
ENDMDL
MODEL 5
REMARK VINA RESULT:      -8.0      3.251      7.816
REMARK  Name = 
REMARK  6 active torsions:
REMARK  status: ('A' for Active; 'I' for Inactive)
REMARK    1  A    between atoms: C_4  and  S_5
REMARK    2  A    between atoms: S_5  and  N_8
REMARK    3  A    between atoms: C_16  and  C_18
REMARK    4  A    between atoms: C_18  and  C_21
REMARK    5  A    between atoms: C_26  and  C_27
REMARK    6  A    between atoms: C_27  and  N_30
REMARK                            x       y       z     vdW  Elec       q    Type
REMARK                         _______ _______ _______ _____ _____    ______ ____
ROOT
ATOM      1  C   UNL     1       6.584  -3.403  26.912  0.00  0.00    +0.000 C 
ENDROOT
BRANCH   1   6
ATOM      2  N   UNL     1       8.730  -1.056  23.098  0.00  0.00    +0.000 NA
ATOM      3  C   UNL     1       9.244  -0.512  24.325  0.00  0.00    +0.000 C 
ATOM      4  C   UNL     1       8.611  -1.151  25.551  0.00  0.00    +0.000 C 
ATOM      5  N   UNL     1       8.291  -2.555  25.260  0.00  0.00    +0.000 N 
ATOM      6  C   UNL     1       7.883  -3.354  26.265  0.00  0.00    +0.000 C 
ATOM      7  O   UNL     1       8.855  -3.776  26.976  0.00  0.00    +0.000 OA
ATOM      8  C   UNL     1       9.128  -3.181  24.226  0.00  0.00    +0.000 C 
ATOM      9  C   UNL     1       9.201  -2.352  22.951  0.00  0.00    +0.000 C 
BRANCH   2  10
ATOM     10  S   UNL     1       8.383  -0.019  22.108  0.00  0.00    +0.000 S 
ATOM     11  O   UNL     1       6.882   0.233  22.141  0.00  0.00    +0.000 OA
ATOM     12  O   UNL     1       8.664  -0.552  20.691  0.00  0.00    +0.000 OA
BRANCH  10  15
ATOM     13  C   UNL     1       9.363   3.437  23.844  0.00  0.00    +0.000 A 
ATOM     14  S   UNL     1       8.027   2.905  22.726  0.00  0.00    +0.000 S 
ATOM     15  C   UNL     1       9.002   1.630  21.922  0.00  0.00    +0.000 A 
ATOM     16  C   UNL     1      10.357   1.865  22.269  0.00  0.00    +0.000 A 
ATOM     17  C   UNL     1      10.545   2.915  23.333  0.00  0.00    +0.000 A 
ENDBRANCH  10  15
ENDBRANCH   2  10
ENDBRANCH   1   6
BRANCH   1  18
ATOM     18  C   UNL     1       6.067  -4.559  27.623  0.00  0.00    +0.000 A 
ATOM     19  C   UNL     1       6.126  -5.758  26.707  0.00  0.00    +0.000 A 
ATOM     20  C   UNL     1       5.066  -6.762  26.517  0.00  0.00    +0.000 A 
ATOM     21  C   UNL     1       3.714  -6.241  27.112  0.00  0.00    +0.000 A 
ATOM     22  C   UNL     1       3.682  -5.358  28.306  0.00  0.00    +0.000 A 
ATOM     23  C   UNL     1       5.040  -4.625  28.645  0.00  0.00    +0.000 A 
BRANCH  21  24
ATOM     24  C   UNL     1       2.977  -5.623  25.771  0.00  0.00    +0.000 C 
BRANCH  24  25
ATOM     25  N   UNL     1       3.663  -4.627  25.139  0.00  0.00    +0.000 N 
ATOM     26  H   UNL     1       3.474  -3.671  25.270  0.00  0.00    +0.000 HD
ATOM     27  C   UNL     1       3.973  -4.769  23.813  0.00  0.00    +0.000 C 
ATOM     28  O   UNL     1       3.035  -4.900  23.022  0.00  0.00    +0.000 OA
ATOM     29  N   UNL     1       5.183  -4.427  23.365  0.00  0.00    +0.000 N 
ATOM     30  C   UNL     1       6.299  -5.329  23.168  0.00  0.00    +0.000 C 
ATOM     31  C   UNL     1       6.518  -5.615  21.676  0.00  0.00    +0.000 C 
ATOM     32  O   UNL     1       5.940  -4.687  20.875  0.00  0.00    +0.000 OA
ATOM     33  C   UNL     1       6.127  -3.396  21.337  0.00  0.00    +0.000 C 
ATOM     34  C   UNL     1       5.271  -3.177  22.567  0.00  0.00    +0.000 C 
ENDBRANCH  24  25
ENDBRANCH  21  24
ENDBRANCH   1  18
TORSDOF 6
ENDMDL
MODEL 6
REMARK VINA RESULT:      -8.0      2.453      4.032
REMARK  Name = 
REMARK  6 active torsions:
REMARK  status: ('A' for Active; 'I' for Inactive)
REMARK    1  A    between atoms: C_4  and  S_5
REMARK    2  A    between atoms: S_5  and  N_8
REMARK    3  A    between atoms: C_16  and  C_18
REMARK    4  A    between atoms: C_18  and  C_21
REMARK    5  A    between atoms: C_26  and  C_27
REMARK    6  A    between atoms: C_27  and  N_30
REMARK                            x       y       z     vdW  Elec       q    Type
REMARK                         _______ _______ _______ _____ _____    ______ ____
ROOT
ATOM      1  C   UNL     1       9.458  -0.931  23.923  0.00  0.00    +0.000 C 
ENDROOT
BRANCH   1   6
ATOM      2  N   UNL     1       7.138  -5.122  25.235  0.00  0.00    +0.000 NA
ATOM      3  C   UNL     1       7.229  -5.073  23.801  0.00  0.00    +0.000 C 
ATOM      4  C   UNL     1       7.896  -3.798  23.308  0.00  0.00    +0.000 C 
ATOM      5  N   UNL     1       8.906  -3.366  24.283  0.00  0.00    +0.000 N 
ATOM      6  C   UNL     1       9.737  -2.356  23.960  0.00  0.00    +0.000 C 
ATOM      7  O   UNL     1      10.697  -2.736  23.211  0.00  0.00    +0.000 OA
ATOM      8  C   UNL     1       9.477  -4.444  25.104  0.00  0.00    +0.000 C 
ATOM      9  C   UNL     1       8.409  -5.311  25.757  0.00  0.00    +0.000 C 
BRANCH   2  10
ATOM     10  S   UNL     1       5.808  -5.540  25.715  0.00  0.00    +0.000 S 
ATOM     11  O   UNL     1       5.967  -6.488  26.896  0.00  0.00    +0.000 OA
ATOM     12  O   UNL     1       5.112  -6.377  24.627  0.00  0.00    +0.000 OA
BRANCH  10  15
ATOM     13  C   UNL     1       1.859  -4.964  25.691  0.00  0.00    +0.000 A 
ATOM     14  S   UNL     1       3.280  -4.094  24.954  0.00  0.00    +0.000 S 
ATOM     15  C   UNL     1       4.431  -4.560  26.249  0.00  0.00    +0.000 A 
ATOM     16  C   UNL     1       3.659  -5.051  27.333  0.00  0.00    +0.000 A 
ATOM     17  C   UNL     1       2.199  -5.240  27.010  0.00  0.00    +0.000 A 
ENDBRANCH  10  15
ENDBRANCH   2  10
ENDBRANCH   1   6
BRANCH   1  18
ATOM     18  C   UNL     1       9.640  -0.092  22.752  0.00  0.00    +0.000 A 
ATOM     19  C   UNL     1       9.709   1.350  23.194  0.00  0.00    +0.000 A 
ATOM     20  C   UNL     1       9.024   2.489  22.560  0.00  0.00    +0.000 A 
ATOM     21  C   UNL     1       7.917   1.976  21.577  0.00  0.00    +0.000 A 
ATOM     22  C   UNL     1       8.077   0.706  20.824  0.00  0.00    +0.000 A 
ATOM     23  C   UNL     1       9.162  -0.290  21.396  0.00  0.00    +0.000 A 
BRANCH  21  24
ATOM     24  C   UNL     1       6.568   2.058  22.525  0.00  0.00    +0.000 C 
BRANCH  24  25
ATOM     25  N   UNL     1       6.272   0.917  23.212  0.00  0.00    +0.000 N 
ATOM     26  H   UNL     1       5.817   0.144  22.809  0.00  0.00    +0.000 HD
ATOM     27  C   UNL     1       5.785   1.015  24.488  0.00  0.00    +0.000 C 
ATOM     28  O   UNL     1       4.724   1.625  24.644  0.00  0.00    +0.000 OA
ATOM     29  N   UNL     1       6.235   0.199  25.444  0.00  0.00    +0.000 N 
ATOM     30  C   UNL     1       7.282   0.508  26.396  0.00  0.00    +0.000 C 
ATOM     31  C   UNL     1       6.695   0.790  27.786  0.00  0.00    +0.000 C 
ATOM     32  O   UNL     1       5.441   0.299  27.934  0.00  0.00    +0.000 OA
ATOM     33  C   UNL     1       5.301  -0.970  27.399  0.00  0.00    +0.000 C 
ATOM     34  C   UNL     1       5.317  -0.880  25.887  0.00  0.00    +0.000 C 
ENDBRANCH  24  25
ENDBRANCH  21  24
ENDBRANCH   1  18
TORSDOF 6
ENDMDL
MODEL 7
REMARK VINA RESULT:      -7.9      1.890      2.167
REMARK  Name = 
REMARK  6 active torsions:
REMARK  status: ('A' for Active; 'I' for Inactive)
REMARK    1  A    between atoms: C_4  and  S_5
REMARK    2  A    between atoms: S_5  and  N_8
REMARK    3  A    between atoms: C_16  and  C_18
REMARK    4  A    between atoms: C_18  and  C_21
REMARK    5  A    between atoms: C_26  and  C_27
REMARK    6  A    between atoms: C_27  and  N_30
REMARK                            x       y       z     vdW  Elec       q    Type
REMARK                         _______ _______ _______ _____ _____    ______ ____
ROOT
ATOM      1  C   UNL     1       7.932  -0.954  24.805  0.00  0.00    +0.000 C 
ENDROOT
BRANCH   1   6
ATOM      2  N   UNL     1       6.771  -5.258  26.993  0.00  0.00    +0.000 NA
ATOM      3  C   UNL     1       6.233  -5.256  25.661  0.00  0.00    +0.000 C 
ATOM      4  C   UNL     1       6.511  -3.954  24.926  0.00  0.00    +0.000 C 
ATOM      5  N   UNL     1       7.801  -3.408  25.371  0.00  0.00    +0.000 N 
ATOM      6  C   UNL     1       8.322  -2.350  24.720  0.00  0.00    +0.000 C 
ATOM      7  O   UNL     1       8.896  -2.683  23.631  0.00  0.00    +0.000 OA
ATOM      8  C   UNL     1       8.759  -4.407  25.867  0.00  0.00    +0.000 C 
ATOM      9  C   UNL     1       8.153  -5.327  26.918  0.00  0.00    +0.000 C 
BRANCH   2  10
ATOM     10  S   UNL     1       5.816  -5.758  28.000  0.00  0.00    +0.000 S 
ATOM     11  O   UNL     1       6.527  -5.924  29.337  0.00  0.00    +0.000 OA
ATOM     12  O   UNL     1       5.364  -7.178  27.614  0.00  0.00    +0.000 OA
BRANCH  10  15
ATOM     13  C   UNL     1       2.569  -3.632  27.075  0.00  0.00    +0.000 A 
ATOM     14  S   UNL     1       4.011  -3.354  28.153  0.00  0.00    +0.000 S 
ATOM     15  C   UNL     1       4.259  -5.093  28.523  0.00  0.00    +0.000 A 
ATOM     16  C   UNL     1       3.085  -5.775  28.115  0.00  0.00    +0.000 A 
ATOM     17  C   UNL     1       2.123  -4.923  27.327  0.00  0.00    +0.000 A 
ENDBRANCH  10  15
ENDBRANCH   2  10
ENDBRANCH   1   6
BRANCH   1  18
ATOM     18  C   UNL     1       8.829   0.125  25.178  0.00  0.00    +0.000 A 
ATOM     19  C   UNL     1       8.007   1.348  25.510  0.00  0.00    +0.000 A 
ATOM     20  C   UNL     1       8.283   2.727  25.075  0.00  0.00    +0.000 A 
ATOM     21  C   UNL     1       9.338   2.729  23.918  0.00  0.00    +0.000 A 
ATOM     22  C   UNL     1      10.417   1.711  23.852  0.00  0.00    +0.000 A 
ATOM     23  C   UNL     1      10.173   0.406  24.708  0.00  0.00    +0.000 A 
BRANCH  21  24
ATOM     24  C   UNL     1       8.369   2.804  22.584  0.00  0.00    +0.000 C 
BRANCH  24  25
ATOM     25  N   UNL     1       7.624   1.685  22.346  0.00  0.00    +0.000 N 
ATOM     26  H   UNL     1       7.530   0.949  22.990  0.00  0.00    +0.000 HD
ATOM     27  C   UNL     1       7.681   1.098  21.111  0.00  0.00    +0.000 C 
ATOM     28  O   UNL     1       8.781   0.693  20.726  0.00  0.00    +0.000 OA
ATOM     29  N   UNL     1       6.565   0.668  20.518  0.00  0.00    +0.000 N 
ATOM     30  C   UNL     1       5.790   1.401  19.539  0.00  0.00    +0.000 C 
ATOM     31  C   UNL     1       6.008   0.833  18.129  0.00  0.00    +0.000 C 
ATOM     32  O   UNL     1       6.506  -0.426  18.144  0.00  0.00    +0.000 OA
ATOM     33  C   UNL     1       5.899  -1.228  19.094  0.00  0.00    +0.000 C 
ATOM     34  C   UNL     1       6.357  -0.802  20.473  0.00  0.00    +0.000 C 
ENDBRANCH  24  25
ENDBRANCH  21  24
ENDBRANCH   1  18
TORSDOF 6
ENDMDL
MODEL 8
REMARK VINA RESULT:      -7.6      1.807      2.169
REMARK  Name = 
REMARK  6 active torsions:
REMARK  status: ('A' for Active; 'I' for Inactive)
REMARK    1  A    between atoms: C_4  and  S_5
REMARK    2  A    between atoms: S_5  and  N_8
REMARK    3  A    between atoms: C_16  and  C_18
REMARK    4  A    between atoms: C_18  and  C_21
REMARK    5  A    between atoms: C_26  and  C_27
REMARK    6  A    between atoms: C_27  and  N_30
REMARK                            x       y       z     vdW  Elec       q    Type
REMARK                         _______ _______ _______ _____ _____    ______ ____
ROOT
ATOM      1  C   UNL     1       7.889  -0.383  24.732  0.00  0.00    +0.000 C 
ENDROOT
BRANCH   1   6
ATOM      2  N   UNL     1       5.386  -4.667  24.933  0.00  0.00    +0.000 NA
ATOM      3  C   UNL     1       6.766  -4.950  24.652  0.00  0.00    +0.000 C 
ATOM      4  C   UNL     1       7.604  -3.686  24.537  0.00  0.00    +0.000 C 
ATOM      5  N   UNL     1       7.068  -2.660  25.440  0.00  0.00    +0.000 N 
ATOM      6  C   UNL     1       7.765  -1.522  25.624  0.00  0.00    +0.000 C 
ATOM      7  O   UNL     1       8.729  -1.669  26.446  0.00  0.00    +0.000 OA
ATOM      8  C   UNL     1       6.345  -3.180  26.611  0.00  0.00    +0.000 C 
ATOM      9  C   UNL     1       5.280  -4.201  26.234  0.00  0.00    +0.000 C 
BRANCH   2  10
ATOM     10  S   UNL     1       4.455  -5.438  24.088  0.00  0.00    +0.000 S 
ATOM     11  O   UNL     1       5.151  -6.694  23.579  0.00  0.00    +0.000 OA
ATOM     12  O   UNL     1       4.125  -4.628  22.821  0.00  0.00    +0.000 OA
BRANCH  10  15
ATOM     13  C   UNL     1       1.549  -8.018  23.180  0.00  0.00    +0.000 A 
ATOM     14  S   UNL     1       1.739  -6.212  23.044  0.00  0.00    +0.000 S 
ATOM     15  C   UNL     1       2.840  -6.069  24.454  0.00  0.00    +0.000 A 
ATOM     16  C   UNL     1       2.762  -7.293  25.167  0.00  0.00    +0.000 A 
ATOM     17  C   UNL     1       1.997  -8.374  24.446  0.00  0.00    +0.000 A 
ENDBRANCH  10  15
ENDBRANCH   2  10
ENDBRANCH   1   6
BRANCH   1  18
ATOM     18  C   UNL     1       8.920   0.634  24.842  0.00  0.00    +0.000 A 
ATOM     19  C   UNL     1       8.309   1.883  25.433  0.00  0.00    +0.000 A 
ATOM     20  C   UNL     1       8.525   3.262  24.966  0.00  0.00    +0.000 A 
ATOM     21  C   UNL     1       9.186   3.256  23.546  0.00  0.00    +0.000 A 
ATOM     22  C   UNL     1      10.133   2.188  23.136  0.00  0.00    +0.000 A 
ATOM     23  C   UNL     1      10.077   0.865  23.997  0.00  0.00    +0.000 A 
BRANCH  21  24
ATOM     24  C   UNL     1       7.869   3.432  22.566  0.00  0.00    +0.000 C 
BRANCH  24  25
ATOM     25  N   UNL     1       7.958   2.803  21.357  0.00  0.00    +0.000 N 
ATOM     26  H   UNL     1       8.195   3.265  20.522  0.00  0.00    +0.000 HD
ATOM     27  C   UNL     1       7.009   1.877  21.017  0.00  0.00    +0.000 C 
ATOM     28  O   UNL     1       5.837   2.260  20.959  0.00  0.00    +0.000 OA
ATOM     29  N   UNL     1       7.367   0.729  20.436  0.00  0.00    +0.000 N 
ATOM     30  C   UNL     1       7.580  -0.532  21.115  0.00  0.00    +0.000 C 
ATOM     31  C   UNL     1       6.413  -1.496  20.862  0.00  0.00    +0.000 C 
ATOM     32  O   UNL     1       5.678  -1.155  19.776  0.00  0.00    +0.000 OA
ATOM     33  C   UNL     1       6.463  -0.769  18.704  0.00  0.00    +0.000 C 
ATOM     34  C   UNL     1       7.065   0.591  18.989  0.00  0.00    +0.000 C 
ENDBRANCH  24  25
ENDBRANCH  21  24
ENDBRANCH   1  18
TORSDOF 6
ENDMDL
MODEL 9
REMARK VINA RESULT:      -7.5      2.183      3.009
REMARK  Name = 
REMARK  6 active torsions:
REMARK  status: ('A' for Active; 'I' for Inactive)
REMARK    1  A    between atoms: C_4  and  S_5
REMARK    2  A    between atoms: S_5  and  N_8
REMARK    3  A    between atoms: C_16  and  C_18
REMARK    4  A    between atoms: C_18  and  C_21
REMARK    5  A    between atoms: C_26  and  C_27
REMARK    6  A    between atoms: C_27  and  N_30
REMARK                            x       y       z     vdW  Elec       q    Type
REMARK                         _______ _______ _______ _____ _____    ______ ____
ROOT
ATOM      1  C   UNL     1       9.519   2.024  23.718  0.00  0.00    +0.000 C 
ENDROOT
BRANCH   1   6
ATOM      2  N   UNL     1       7.877  -2.658  23.941  0.00  0.00    +0.000 NA
ATOM      3  C   UNL     1       9.069  -2.623  23.138  0.00  0.00    +0.000 C 
ATOM      4  C   UNL     1       9.622  -1.215  22.986  0.00  0.00    +0.000 C 
ATOM      5  N   UNL     1       9.342  -0.445  24.205  0.00  0.00    +0.000 N 
ATOM      6  C   UNL     1       9.899   0.773  24.352  0.00  0.00    +0.000 C 
ATOM      7  O   UNL     1      11.115   0.710  24.732  0.00  0.00    +0.000 OA
ATOM      8  C   UNL     1       9.200  -1.249  25.428  0.00  0.00    +0.000 C 
ATOM      9  C   UNL     1       8.218  -2.401  25.260  0.00  0.00    +0.000 C 
BRANCH   2  10
ATOM     10  S   UNL     1       6.805  -3.478  23.346  0.00  0.00    +0.000 S 
ATOM     11  O   UNL     1       7.392  -4.379  22.267  0.00  0.00    +0.000 OA
ATOM     12  O   UNL     1       5.816  -2.563  22.602  0.00  0.00    +0.000 OA
BRANCH  10  15
ATOM     13  C   UNL     1       3.081  -4.902  23.506  0.00  0.00    +0.000 A 
ATOM     14  S   UNL     1       4.087  -3.838  24.589  0.00  0.00    +0.000 S 
ATOM     15  C   UNL     1       5.652  -4.579  24.118  0.00  0.00    +0.000 A 
ATOM     16  C   UNL     1       5.350  -5.790  23.444  0.00  0.00    +0.000 A 
ATOM     17  C   UNL     1       3.886  -5.973  23.136  0.00  0.00    +0.000 A 
ENDBRANCH  10  15
ENDBRANCH   2  10
ENDBRANCH   1   6
BRANCH   1  18
ATOM     18  C   UNL     1       8.849   3.116  24.401  0.00  0.00    +0.000 A 
ATOM     19  C   UNL     1       7.727   2.550  25.238  0.00  0.00    +0.000 A 
ATOM     20  C   UNL     1       6.360   3.088  25.340  0.00  0.00    +0.000 A 
ATOM     21  C   UNL     1       6.097   4.121  24.192  0.00  0.00    +0.000 A 
ATOM     22  C   UNL     1       7.185   4.979  23.658  0.00  0.00    +0.000 A 
ATOM     23  C   UNL     1       8.654   4.487  23.969  0.00  0.00    +0.000 A 
BRANCH  21  24
ATOM     24  C   UNL     1       5.338   3.180  23.068  0.00  0.00    +0.000 C 
BRANCH  24  25
ATOM     25  N   UNL     1       6.043   2.087  22.654  0.00  0.00    +0.000 N 
ATOM     26  H   UNL     1       6.712   1.631  23.213  0.00  0.00    +0.000 HD
ATOM     27  C   UNL     1       6.536   2.055  21.378  0.00  0.00    +0.000 C 
ATOM     28  O   UNL     1       7.331   2.941  21.055  0.00  0.00    +0.000 OA
ATOM     29  N   UNL     1       6.443   0.941  20.649  0.00  0.00    +0.000 N 
ATOM     30  C   UNL     1       5.407   0.647  19.681  0.00  0.00    +0.000 C 
ATOM     31  C   UNL     1       5.937   0.790  18.247  0.00  0.00    +0.000 C 
ATOM     32  O   UNL     1       7.289   0.741  18.182  0.00  0.00    +0.000 OA
ATOM     33  C   UNL     1       7.825  -0.246  18.991  0.00  0.00    +0.000 C 
ATOM     34  C   UNL     1       7.697   0.173  20.441  0.00  0.00    +0.000 C 
ENDBRANCH  24  25
ENDBRANCH  21  24
ENDBRANCH   1  18
TORSDOF 6
ENDMDL
