MODEL 1
REMARK VINA RESULT:      -8.6      0.000      0.000
REMARK  Name = 
REMARK  6 active torsions:
REMARK  status: ('A' for Active; 'I' for Inactive)
REMARK    1  A    between atoms: N_5  and  S_7
REMARK    2  A    between atoms: S_7  and  C_10
REMARK    3  A    between atoms: C_15  and  N_16
REMARK    4  A    between atoms: N_16  and  C_18
REMARK    5  A    between atoms: C_20  and  C_21
REMARK    6  A    between atoms: C_26  and  C_27
REMARK                            x       y       z     vdW  Elec       q    Type
REMARK                         _______ _______ _______ _____ _____    ______ ____
ROOT
ATOM      1  C   UNL     1       9.917   1.169  22.501  0.00  0.00    +0.000 A 
ATOM      2  C   UNL     1       9.816  -0.259  22.137  0.00  0.00    +0.000 A 
ATOM      3  C   UNL     1      10.086  -1.422  22.974  0.00  0.00    +0.000 A 
ATOM      4  C   UNL     1      10.137  -1.006  24.471  0.00  0.00    +0.000 A 
ATOM      5  C   UNL     1      10.579   0.321  24.949  0.00  0.00    +0.000 A 
ATOM      6  C   UNL     1      10.385   1.436  23.874  0.00  0.00    +0.000 A 
ENDROOT
BRANCH   1   7
ATOM      7  S   UNL     1       8.265   1.759  22.196  0.00  0.00    +0.000 S 
ATOM      8  O   UNL     1       7.333   0.867  22.764  0.00  0.00    +0.000 OA
ATOM      9  O   UNL     1       8.185   3.141  22.449  0.00  0.00    +0.000 OA
BRANCH   7  13
ATOM     10  C   UNL     1       5.016   1.577  19.232  0.00  0.00    +0.000 A 
ATOM     11  N   UNL     1       6.005   1.888  20.301  0.00  0.00    +0.000 NA
ATOM     12  C   UNL     1       6.937   1.017  20.258  0.00  0.00    +0.000 A 
ATOM     13  N   UNL     1       8.064   1.549  20.540  0.00  0.00    +0.000 N 
ATOM     14  H   UNL     1       8.239   2.390  20.107  0.00  0.00    +0.000 HD
ATOM     15  C   UNL     1       7.234  -0.127  19.478  0.00  0.00    +0.000 A 
ATOM     16  C   UNL     1       6.370  -0.610  18.456  0.00  0.00    +0.000 A 
ATOM     17  C   UNL     1       5.144   0.253  18.727  0.00  0.00    +0.000 A 
ENDBRANCH   7  13
ENDBRANCH   1   7
BRANCH   4  18
ATOM     18  N   UNL     1       9.162  -1.790  25.104  0.00  0.00    +0.000 N 
ATOM     19  H   UNL     1       9.480  -1.827  26.054  0.00  0.00    +0.000 HD
BRANCH  18  20
ATOM     20  C   UNL     1       8.530  -2.851  24.814  0.00  0.00    +0.000 C 
ATOM     21  S   UNL     1       7.950  -3.549  26.352  0.00  0.00    +0.000 S 
ATOM     22  C   UNL     1       7.753  -5.100  25.874  0.00  0.00    +0.000 C 
ATOM     23  C   UNL     1       6.468  -5.699  26.355  0.00  0.00    +0.000 C 
ATOM     24  N   UNL     1       8.051  -5.152  24.555  0.00  0.00    +0.000 NA
ATOM     25  C   UNL     1       8.251  -3.808  23.943  0.00  0.00    +0.000 C 
BRANCH  25  26
ATOM     26  C   UNL     1       7.551  -3.948  22.668  0.00  0.00    +0.000 A 
ATOM     27  C   UNL     1       6.338  -3.199  22.936  0.00  0.00    +0.000 A 
ATOM     28  C   UNL     1       4.924  -3.675  23.070  0.00  0.00    +0.000 A 
ATOM     29  C   UNL     1       4.964  -5.116  22.702  0.00  0.00    +0.000 A 
ATOM     30  C   UNL     1       5.898  -6.033  22.176  0.00  0.00    +0.000 A 
ATOM     31  C   UNL     1       7.246  -5.301  22.106  0.00  0.00    +0.000 A 
ENDBRANCH  25  26
ENDBRANCH  18  20
ENDBRANCH   4  18
TORSDOF 5
ENDMDL
MODEL 2
REMARK VINA RESULT:      -8.2      2.523      6.842
REMARK  Name = 
REMARK  6 active torsions:
REMARK  status: ('A' for Active; 'I' for Inactive)
REMARK    1  A    between atoms: N_5  and  S_7
REMARK    2  A    between atoms: S_7  and  C_10
REMARK    3  A    between atoms: C_15  and  N_16
REMARK    4  A    between atoms: N_16  and  C_18
REMARK    5  A    between atoms: C_20  and  C_21
REMARK    6  A    between atoms: C_26  and  C_27
REMARK                            x       y       z     vdW  Elec       q    Type
REMARK                         _______ _______ _______ _____ _____    ______ ____
ROOT
ATOM      1  C   UNL     1       8.582  -3.524  26.509  0.00  0.00    +0.000 A 
ATOM      2  C   UNL     1       8.254  -2.092  26.352  0.00  0.00    +0.000 A 
ATOM      3  C   UNL     1       8.498  -1.234  25.198  0.00  0.00    +0.000 A 
ATOM      4  C   UNL     1       8.819  -2.098  23.945  0.00  0.00    +0.000 A 
ATOM      5  C   UNL     1       9.485  -3.417  23.995  0.00  0.00    +0.000 A 
ATOM      6  C   UNL     1       9.275  -4.140  25.362  0.00  0.00    +0.000 A 
ENDROOT
BRANCH   1   7
ATOM      7  S   UNL     1       6.987  -4.247  26.836  0.00  0.00    +0.000 S 
ATOM      8  O   UNL     1       7.080  -5.113  27.944  0.00  0.00    +0.000 OA
ATOM      9  O   UNL     1       5.983  -3.263  26.773  0.00  0.00    +0.000 OA
BRANCH   7  13
ATOM     10  C   UNL     1       4.983  -4.256  22.917  0.00  0.00    +0.000 A 
ATOM     11  N   UNL     1       5.793  -4.026  24.145  0.00  0.00    +0.000 NA
ATOM     12  C   UNL     1       5.652  -5.030  24.920  0.00  0.00    +0.000 A 
ATOM     13  N   UNL     1       6.743  -5.283  25.534  0.00  0.00    +0.000 N 
ATOM     14  H   UNL     1       7.533  -5.269  24.986  0.00  0.00    +0.000 HD
ATOM     15  C   UNL     1       4.931  -6.249  24.894  0.00  0.00    +0.000 A 
ATOM     16  C   UNL     1       4.056  -6.607  23.831  0.00  0.00    +0.000 A 
ATOM     17  C   UNL     1       4.010  -5.282  23.080  0.00  0.00    +0.000 A 
ENDBRANCH   7  13
ENDBRANCH   1   7
BRANCH   4  18
ATOM     18  N   UNL     1       7.858  -1.733  22.991  0.00  0.00    +0.000 N 
ATOM     19  H   UNL     1       7.520  -2.616  22.659  0.00  0.00    +0.000 HD
BRANCH  18  20
ATOM     20  C   UNL     1       7.787  -0.864  22.070  0.00  0.00    +0.000 C 
ATOM     21  S   UNL     1       6.372  -1.286  21.065  0.00  0.00    +0.000 S 
ATOM     22  C   UNL     1       6.796  -0.516  19.686  0.00  0.00    +0.000 C 
ATOM     23  C   UNL     1       5.662   0.243  19.070  0.00  0.00    +0.000 C 
ATOM     24  N   UNL     1       7.963   0.125  19.930  0.00  0.00    +0.000 NA
ATOM     25  C   UNL     1       8.361   0.098  21.365  0.00  0.00    +0.000 C 
BRANCH  25  26
ATOM     26  C   UNL     1       8.836   1.464  21.574  0.00  0.00    +0.000 A 
ATOM     27  C   UNL     1      10.079   1.217  22.279  0.00  0.00    +0.000 A 
ATOM     28  C   UNL     1      10.456   1.518  23.698  0.00  0.00    +0.000 A 
ATOM     29  C   UNL     1       9.315   2.302  24.243  0.00  0.00    +0.000 A 
ATOM     30  C   UNL     1       8.130   2.895  23.758  0.00  0.00    +0.000 A 
ATOM     31  C   UNL     1       7.990   2.469  22.290  0.00  0.00    +0.000 A 
ENDBRANCH  25  26
ENDBRANCH  18  20
ENDBRANCH   4  18
TORSDOF 5
ENDMDL
MODEL 3
REMARK VINA RESULT:      -8.0      1.422      2.626
REMARK  Name = 
REMARK  6 active torsions:
REMARK  status: ('A' for Active; 'I' for Inactive)
REMARK    1  A    between atoms: N_5  and  S_7
REMARK    2  A    between atoms: S_7  and  C_10
REMARK    3  A    between atoms: C_15  and  N_16
REMARK    4  A    between atoms: N_16  and  C_18
REMARK    5  A    between atoms: C_20  and  C_21
REMARK    6  A    between atoms: C_26  and  C_27
REMARK                            x       y       z     vdW  Elec       q    Type
REMARK                         _______ _______ _______ _____ _____    ______ ____
ROOT
ATOM      1  C   UNL     1       9.565   1.192  22.955  0.00  0.00    +0.000 A 
ATOM      2  C   UNL     1       9.889   0.099  22.016  0.00  0.00    +0.000 A 
ATOM      3  C   UNL     1      10.316  -1.260  22.329  0.00  0.00    +0.000 A 
ATOM      4  C   UNL     1      10.030  -1.582  23.823  0.00  0.00    +0.000 A 
ATOM      5  C   UNL     1      10.040  -0.575  24.905  0.00  0.00    +0.000 A 
ATOM      6  C   UNL     1       9.734   0.864  24.384  0.00  0.00    +0.000 A 
ENDROOT
BRANCH   1   7
ATOM      7  S   UNL     1       7.883   1.583  22.520  0.00  0.00    +0.000 S 
ATOM      8  O   UNL     1       7.040   0.515  22.886  0.00  0.00    +0.000 OA
ATOM      9  O   UNL     1       7.576   2.904  22.896  0.00  0.00    +0.000 OA
BRANCH   7  13
ATOM     10  C   UNL     1       5.008   1.610  19.187  0.00  0.00    +0.000 A 
ATOM     11  N   UNL     1       5.853   1.839  20.392  0.00  0.00    +0.000 NA
ATOM     12  C   UNL     1       6.819   1.004  20.375  0.00  0.00    +0.000 A 
ATOM     13  N   UNL     1       7.883   1.538  20.839  0.00  0.00    +0.000 N 
ATOM     14  H   UNL     1       8.072   2.423  20.514  0.00  0.00    +0.000 HD
ATOM     15  C   UNL     1       7.250  -0.045  19.528  0.00  0.00    +0.000 A 
ATOM     16  C   UNL     1       6.530  -0.447  18.368  0.00  0.00    +0.000 A 
ATOM     17  C   UNL     1       5.247   0.348  18.574  0.00  0.00    +0.000 A 
ENDBRANCH   7  13
ENDBRANCH   1   7
BRANCH   4  18
ATOM     18  N   UNL     1       9.203  -2.714  23.803  0.00  0.00    +0.000 N 
ATOM     19  H   UNL     1       9.408  -3.130  22.914  0.00  0.00    +0.000 HD
BRANCH  18  20
ATOM     20  C   UNL     1       8.004  -2.960  24.134  0.00  0.00    +0.000 C 
ATOM     21  S   UNL     1       7.254  -3.830  22.766  0.00  0.00    +0.000 S 
ATOM     22  C   UNL     1       5.683  -3.505  23.084  0.00  0.00    +0.000 C 
ATOM     23  C   UNL     1       4.800  -4.705  22.939  0.00  0.00    +0.000 C 
ATOM     24  N   UNL     1       5.648  -2.794  24.235  0.00  0.00    +0.000 NA
ATOM     25  C   UNL     1       6.967  -2.719  24.921  0.00  0.00    +0.000 C 
BRANCH  25  26
ATOM     26  C   UNL     1       6.594  -2.919  26.320  0.00  0.00    +0.000 A 
ATOM     27  C   UNL     1       7.536  -3.950  26.710  0.00  0.00    +0.000 A 
ATOM     28  C   UNL     1       7.296  -5.384  27.074  0.00  0.00    +0.000 A 
ATOM     29  C   UNL     1       5.817  -5.530  27.117  0.00  0.00    +0.000 A 
ATOM     30  C   UNL     1       4.683  -4.694  27.039  0.00  0.00    +0.000 A 
ATOM     31  C   UNL     1       5.193  -3.288  26.693  0.00  0.00    +0.000 A 
ENDBRANCH  25  26
ENDBRANCH  18  20
ENDBRANCH   4  18
TORSDOF 5
ENDMDL
MODEL 4
REMARK VINA RESULT:      -7.9      2.708      7.550
REMARK  Name = 
REMARK  6 active torsions:
REMARK  status: ('A' for Active; 'I' for Inactive)
REMARK    1  A    between atoms: N_5  and  S_7
REMARK    2  A    between atoms: S_7  and  C_10
REMARK    3  A    between atoms: C_15  and  N_16
REMARK    4  A    between atoms: N_16  and  C_18
REMARK    5  A    between atoms: C_20  and  C_21
REMARK    6  A    between atoms: C_26  and  C_27
REMARK                            x       y       z     vdW  Elec       q    Type
REMARK                         _______ _______ _______ _____ _____    ______ ____
ROOT
ATOM      1  C   UNL     1       8.582  -4.550  24.909  0.00  0.00    +0.000 A 
ATOM      2  C   UNL     1       9.282  -3.290  24.588  0.00  0.00    +0.000 A 
ATOM      3  C   UNL     1       9.254  -2.538  23.339  0.00  0.00    +0.000 A 
ATOM      4  C   UNL     1       8.069  -3.013  22.452  0.00  0.00    +0.000 A 
ATOM      5  C   UNL     1       7.528  -4.390  22.456  0.00  0.00    +0.000 A 
ATOM      6  C   UNL     1       7.789  -5.127  23.807  0.00  0.00    +0.000 A 
ENDROOT
BRANCH   1   7
ATOM      7  S   UNL     1       7.593  -4.090  26.317  0.00  0.00    +0.000 S 
ATOM      8  O   UNL     1       7.817  -5.001  27.369  0.00  0.00    +0.000 OA
ATOM      9  O   UNL     1       7.673  -2.702  26.538  0.00  0.00    +0.000 OA
BRANCH   7  13
ATOM     10  C   UNL     1       3.647  -4.884  28.099  0.00  0.00    +0.000 A 
ATOM     11  N   UNL     1       4.974  -4.380  27.649  0.00  0.00    +0.000 NA
ATOM     12  C   UNL     1       5.386  -5.117  26.690  0.00  0.00    +0.000 A 
ATOM     13  N   UNL     1       6.019  -4.420  25.827  0.00  0.00    +0.000 N 
ATOM     14  H   UNL     1       5.599  -3.590  25.583  0.00  0.00    +0.000 HD
ATOM     15  C   UNL     1       4.905  -6.253  25.995  0.00  0.00    +0.000 A 
ATOM     16  C   UNL     1       3.687  -6.907  26.331  0.00  0.00    +0.000 A 
ATOM     17  C   UNL     1       3.374  -6.205  27.647  0.00  0.00    +0.000 A 
ENDBRANCH   7  13
ENDBRANCH   1   7
BRANCH   4  18
ATOM     18  N   UNL     1       7.302  -1.864  22.217  0.00  0.00    +0.000 N 
ATOM     19  H   UNL     1       6.360  -2.198  22.300  0.00  0.00    +0.000 HD
BRANCH  18  20
ATOM     20  C   UNL     1       7.352  -0.899  21.395  0.00  0.00    +0.000 C 
ATOM     21  S   UNL     1       6.018  -1.135  20.232  0.00  0.00    +0.000 S 
ATOM     22  C   UNL     1       6.598  -0.245  18.989  0.00  0.00    +0.000 C 
ATOM     23  C   UNL     1       5.558   0.633  18.366  0.00  0.00    +0.000 C 
ATOM     24  N   UNL     1       7.764   0.304  19.402  0.00  0.00    +0.000 NA
ATOM     25  C   UNL     1       8.028   0.103  20.854  0.00  0.00    +0.000 C 
BRANCH  25  26
ATOM     26  C   UNL     1       8.540   1.412  21.255  0.00  0.00    +0.000 A 
ATOM     27  C   UNL     1       9.806   1.040  21.855  0.00  0.00    +0.000 A 
ATOM     28  C   UNL     1      10.248   1.106  23.285  0.00  0.00    +0.000 A 
ATOM     29  C   UNL     1       9.148   1.809  23.998  0.00  0.00    +0.000 A 
ATOM     30  C   UNL     1       7.957   2.487  23.667  0.00  0.00    +0.000 A 
ATOM     31  C   UNL     1       7.745   2.301  22.158  0.00  0.00    +0.000 A 
ENDBRANCH  25  26
ENDBRANCH  18  20
ENDBRANCH   4  18
TORSDOF 5
ENDMDL
MODEL 5
REMARK VINA RESULT:      -7.9      1.375      2.033
REMARK  Name = 
REMARK  6 active torsions:
REMARK  status: ('A' for Active; 'I' for Inactive)
REMARK    1  A    between atoms: N_5  and  S_7
REMARK    2  A    between atoms: S_7  and  C_10
REMARK    3  A    between atoms: C_15  and  N_16
REMARK    4  A    between atoms: N_16  and  C_18
REMARK    5  A    between atoms: C_20  and  C_21
REMARK    6  A    between atoms: C_26  and  C_27
REMARK                            x       y       z     vdW  Elec       q    Type
REMARK                         _______ _______ _______ _____ _____    ______ ____
ROOT
ATOM      1  C   UNL     1       8.633   2.622  24.812  0.00  0.00    +0.000 A 
ATOM      2  C   UNL     1       9.930   1.978  24.522  0.00  0.00    +0.000 A 
ATOM      3  C   UNL     1      10.328   0.599  24.780  0.00  0.00    +0.000 A 
ATOM      4  C   UNL     1       9.077  -0.277  25.069  0.00  0.00    +0.000 A 
ATOM      5  C   UNL     1       7.839   0.228  25.701  0.00  0.00    +0.000 A 
ATOM      6  C   UNL     1       7.639   1.760  25.481  0.00  0.00    +0.000 A 
ENDROOT
BRANCH   1   7
ATOM      7  S   UNL     1       8.111   3.174  23.201  0.00  0.00    +0.000 S 
ATOM      8  O   UNL     1       7.202   4.242  23.341  0.00  0.00    +0.000 OA
ATOM      9  O   UNL     1       9.218   3.279  22.339  0.00  0.00    +0.000 OA
BRANCH   7  13
ATOM     10  C   UNL     1       8.477  -0.348  20.587  0.00  0.00    +0.000 A 
ATOM     11  N   UNL     1       8.569   0.730  21.610  0.00  0.00    +0.000 NA
ATOM     12  C   UNL     1       7.554   1.494  21.489  0.00  0.00    +0.000 A 
ATOM     13  N   UNL     1       7.162   1.909  22.632  0.00  0.00    +0.000 N 
ATOM     14  H   UNL     1       7.116   1.235  23.317  0.00  0.00    +0.000 HD
ATOM     15  C   UNL     1       6.419   1.562  20.644  0.00  0.00    +0.000 A 
ATOM     16  C   UNL     1       6.200   0.654  19.570  0.00  0.00    +0.000 A 
ATOM     17  C   UNL     1       7.553  -0.046  19.547  0.00  0.00    +0.000 A 
ENDBRANCH   7  13
ENDBRANCH   1   7
BRANCH   4  18
ATOM     18  N   UNL     1       9.115  -1.300  24.112  0.00  0.00    +0.000 N 
ATOM     19  H   UNL     1       9.043  -0.803  23.244  0.00  0.00    +0.000 HD
BRANCH  18  20
ATOM     20  C   UNL     1       8.592  -2.450  24.000  0.00  0.00    +0.000 C 
ATOM     21  S   UNL     1       8.568  -3.172  25.633  0.00  0.00    +0.000 S 
ATOM     22  C   UNL     1       8.477  -4.751  25.217  0.00  0.00    +0.000 C 
ATOM     23  C   UNL     1       7.478  -5.511  26.031  0.00  0.00    +0.000 C 
ATOM     24  N   UNL     1       8.405  -4.803  23.866  0.00  0.00    +0.000 NA
ATOM     25  C   UNL     1       8.229  -3.466  23.234  0.00  0.00    +0.000 C 
BRANCH  25  26
ATOM     26  C   UNL     1       7.233  -3.749  22.201  0.00  0.00    +0.000 A 
ATOM     27  C   UNL     1       6.059  -3.116  22.771  0.00  0.00    +0.000 A 
ATOM     28  C   UNL     1       4.797  -3.728  23.297  0.00  0.00    +0.000 A 
ATOM     29  C   UNL     1       4.903  -5.174  22.969  0.00  0.00    +0.000 A 
ATOM     30  C   UNL     1       5.760  -6.017  22.231  0.00  0.00    +0.000 A 
ATOM     31  C   UNL     1       6.946  -5.155  21.778  0.00  0.00    +0.000 A 
ENDBRANCH  25  26
ENDBRANCH  18  20
ENDBRANCH   4  18
TORSDOF 5
ENDMDL
MODEL 6
REMARK VINA RESULT:      -7.9      1.770      2.371
REMARK  Name = 
REMARK  6 active torsions:
REMARK  status: ('A' for Active; 'I' for Inactive)
REMARK    1  A    between atoms: N_5  and  S_7
REMARK    2  A    between atoms: S_7  and  C_10
REMARK    3  A    between atoms: C_15  and  N_16
REMARK    4  A    between atoms: N_16  and  C_18
REMARK    5  A    between atoms: C_20  and  C_21
REMARK    6  A    between atoms: C_26  and  C_27
REMARK                            x       y       z     vdW  Elec       q    Type
REMARK                         _______ _______ _______ _____ _____    ______ ____
ROOT
ATOM      1  C   UNL     1       9.856   0.858  22.509  0.00  0.00    +0.000 A 
ATOM      2  C   UNL     1       9.617  -0.597  22.413  0.00  0.00    +0.000 A 
ATOM      3  C   UNL     1       9.867  -1.619  23.423  0.00  0.00    +0.000 A 
ATOM      4  C   UNL     1      10.076  -0.959  24.815  0.00  0.00    +0.000 A 
ATOM      5  C   UNL     1      10.656   0.386  25.017  0.00  0.00    +0.000 A 
ATOM      6  C   UNL     1      10.457   1.313  23.777  0.00  0.00    +0.000 A 
ENDROOT
BRANCH   1   7
ATOM      7  S   UNL     1       8.233   1.531  22.221  0.00  0.00    +0.000 S 
ATOM      8  O   UNL     1       7.259   0.652  22.734  0.00  0.00    +0.000 OA
ATOM      9  O   UNL     1       8.208   2.901  22.543  0.00  0.00    +0.000 OA
BRANCH   7  13
ATOM     10  C   UNL     1       5.008   1.595  19.226  0.00  0.00    +0.000 A 
ATOM     11  N   UNL     1       5.994   1.821  20.318  0.00  0.00    +0.000 NA
ATOM     12  C   UNL     1       6.904   0.929  20.237  0.00  0.00    +0.000 A 
ATOM     13  N   UNL     1       8.042   1.415  20.554  0.00  0.00    +0.000 N 
ATOM     14  H   UNL     1       8.243   2.272  20.167  0.00  0.00    +0.000 HD
ATOM     15  C   UNL     1       7.177  -0.180  19.399  0.00  0.00    +0.000 A 
ATOM     16  C   UNL     1       6.309  -0.585  18.346  0.00  0.00    +0.000 A 
ATOM     17  C   UNL     1       5.105   0.295  18.653  0.00  0.00    +0.000 A 
ENDBRANCH   7  13
ENDBRANCH   1   7
BRANCH   4  18
ATOM     18  N   UNL     1       9.101  -1.532  25.644  0.00  0.00    +0.000 N 
ATOM     19  H   UNL     1       9.476  -2.441  25.841  0.00  0.00    +0.000 HD
BRANCH  18  20
ATOM     20  C   UNL     1       7.834  -1.573  25.649  0.00  0.00    +0.000 C 
ATOM     21  S   UNL     1       7.265  -0.004  26.286  0.00  0.00    +0.000 S 
ATOM     22  C   UNL     1       5.775  -0.453  26.789  0.00  0.00    +0.000 C 
ATOM     23  C   UNL     1       4.712   0.529  26.409  0.00  0.00    +0.000 C 
ATOM     24  N   UNL     1       5.619  -1.756  26.457  0.00  0.00    +0.000 NA
ATOM     25  C   UNL     1       6.716  -2.281  25.597  0.00  0.00    +0.000 C 
BRANCH  25  26
ATOM     26  C   UNL     1       5.980  -3.081  24.621  0.00  0.00    +0.000 A 
ATOM     27  C   UNL     1       6.813  -4.267  24.554  0.00  0.00    +0.000 A 
ATOM     28  C   UNL     1       7.660  -4.784  23.431  0.00  0.00    +0.000 A 
ATOM     29  C   UNL     1       7.356  -3.898  22.277  0.00  0.00    +0.000 A 
ATOM     30  C   UNL     1       6.448  -2.864  21.965  0.00  0.00    +0.000 A 
ATOM     31  C   UNL     1       5.683  -2.543  23.257  0.00  0.00    +0.000 A 
ENDBRANCH  25  26
ENDBRANCH  18  20
ENDBRANCH   4  18
TORSDOF 5
ENDMDL
MODEL 7
REMARK VINA RESULT:      -7.8      3.187      6.865
REMARK  Name = 
REMARK  6 active torsions:
REMARK  status: ('A' for Active; 'I' for Inactive)
REMARK    1  A    between atoms: N_5  and  S_7
REMARK    2  A    between atoms: S_7  and  C_10
REMARK    3  A    between atoms: C_15  and  N_16
REMARK    4  A    between atoms: N_16  and  C_18
REMARK    5  A    between atoms: C_20  and  C_21
REMARK    6  A    between atoms: C_26  and  C_27
REMARK                            x       y       z     vdW  Elec       q    Type
REMARK                         _______ _______ _______ _____ _____    ______ ____
ROOT
ATOM      1  C   UNL     1       6.457  -4.455  27.246  0.00  0.00    +0.000 A 
ATOM      2  C   UNL     1       6.535  -3.016  26.922  0.00  0.00    +0.000 A 
ATOM      3  C   UNL     1       7.693  -2.258  26.465  0.00  0.00    +0.000 A 
ATOM      4  C   UNL     1       8.808  -3.224  25.973  0.00  0.00    +0.000 A 
ATOM      5  C   UNL     1       9.025  -4.583  26.512  0.00  0.00    +0.000 A 
ATOM      6  C   UNL     1       7.726  -5.196  27.124  0.00  0.00    +0.000 A 
ENDROOT
BRANCH   1   7
ATOM      7  S   UNL     1       5.197  -5.031  26.127  0.00  0.00    +0.000 S 
ATOM      8  O   UNL     1       5.294  -6.430  25.988  0.00  0.00    +0.000 OA
ATOM      9  O   UNL     1       3.964  -4.421  26.424  0.00  0.00    +0.000 OA
BRANCH   7  13
ATOM     10  C   UNL     1       4.921  -6.108  21.868  0.00  0.00    +0.000 A 
ATOM     11  N   UNL     1       4.734  -5.760  23.304  0.00  0.00    +0.000 NA
ATOM     12  C   UNL     1       5.856  -5.380  23.780  0.00  0.00    +0.000 A 
ATOM     13  N   UNL     1       5.690  -4.442  24.632  0.00  0.00    +0.000 N 
ATOM     14  H   UNL     1       5.078  -3.750  24.364  0.00  0.00    +0.000 HD
ATOM     15  C   UNL     1       7.177  -5.228  23.291  0.00  0.00    +0.000 A 
ATOM     16  C   UNL     1       7.553  -5.575  21.962  0.00  0.00    +0.000 A 
ATOM     17  C   UNL     1       6.287  -6.297  21.518  0.00  0.00    +0.000 A 
ENDBRANCH   7  13
ENDBRANCH   1   7
BRANCH   4  18
ATOM     18  N   UNL     1       9.057  -2.851  24.645  0.00  0.00    +0.000 N 
ATOM     19  H   UNL     1       9.662  -3.579  24.314  0.00  0.00    +0.000 HD
BRANCH  18  20
ATOM     20  C   UNL     1       9.318  -1.762  24.048  0.00  0.00    +0.000 C 
ATOM     21  S   UNL     1       8.452  -1.804  22.487  0.00  0.00    +0.000 S 
ATOM     22  C   UNL     1       9.353  -0.718  21.662  0.00  0.00    +0.000 C 
ATOM     23  C   UNL     1       8.525   0.250  20.876  0.00  0.00    +0.000 C 
ATOM     24  N   UNL     1      10.288  -0.244  22.518  0.00  0.00    +0.000 NA
ATOM     25  C   UNL     1      10.076  -0.684  23.925  0.00  0.00    +0.000 C 
BRANCH  25  26
ATOM     26  C   UNL     1      10.354   0.541  24.672  0.00  0.00    +0.000 A 
ATOM     27  C   UNL     1       9.038   0.847  25.199  0.00  0.00    +0.000 A 
ATOM     28  C   UNL     1       8.111   1.978  24.874  0.00  0.00    +0.000 A 
ATOM     29  C   UNL     1       8.891   2.872  23.977  0.00  0.00    +0.000 A 
ATOM     30  C   UNL     1      10.216   2.978  23.505  0.00  0.00    +0.000 A 
ATOM     31  C   UNL     1      10.962   1.729  23.995  0.00  0.00    +0.000 A 
ENDBRANCH  25  26
ENDBRANCH  18  20
ENDBRANCH   4  18
TORSDOF 5
ENDMDL
MODEL 8
REMARK VINA RESULT:      -7.7      2.849      7.143
REMARK  Name = 
REMARK  6 active torsions:
REMARK  status: ('A' for Active; 'I' for Inactive)
REMARK    1  A    between atoms: N_5  and  S_7
REMARK    2  A    between atoms: S_7  and  C_10
REMARK    3  A    between atoms: C_15  and  N_16
REMARK    4  A    between atoms: N_16  and  C_18
REMARK    5  A    between atoms: C_20  and  C_21
REMARK    6  A    between atoms: C_26  and  C_27
REMARK                            x       y       z     vdW  Elec       q    Type
REMARK                         _______ _______ _______ _____ _____    ______ ____
ROOT
ATOM      1  C   UNL     1       6.543  -4.709  24.265  0.00  0.00    +0.000 A 
ATOM      2  C   UNL     1       6.600  -3.251  24.494  0.00  0.00    +0.000 A 
ATOM      3  C   UNL     1       7.754  -2.444  24.875  0.00  0.00    +0.000 A 
ATOM      4  C   UNL     1       9.067  -3.243  24.649  0.00  0.00    +0.000 A 
ATOM      5  C   UNL     1       9.172  -4.715  24.756  0.00  0.00    +0.000 A 
ATOM      6  C   UNL     1       7.811  -5.430  24.489  0.00  0.00    +0.000 A 
ENDROOT
BRANCH   1   7
ATOM      7  S   UNL     1       5.968  -4.810  22.583  0.00  0.00    +0.000 S 
ATOM      8  O   UNL     1       5.142  -3.703  22.300  0.00  0.00    +0.000 OA
ATOM      9  O   UNL     1       7.027  -5.157  21.724  0.00  0.00    +0.000 OA
BRANCH   7  13
ATOM     10  C   UNL     1       1.737  -5.639  23.470  0.00  0.00    +0.000 A 
ATOM     11  N   UNL     1       3.066  -5.169  22.989  0.00  0.00    +0.000 NA
ATOM     12  C   UNL     1       3.965  -5.949  23.453  0.00  0.00    +0.000 A 
ATOM     13  N   UNL     1       4.903  -6.111  22.601  0.00  0.00    +0.000 N 
ATOM     14  H   UNL     1       4.613  -6.276  21.700  0.00  0.00    +0.000 HD
ATOM     15  C   UNL     1       3.996  -7.094  24.286  0.00  0.00    +0.000 A 
ATOM     16  C   UNL     1       2.829  -7.643  24.889  0.00  0.00    +0.000 A 
ATOM     17  C   UNL     1       1.832  -6.536  24.571  0.00  0.00    +0.000 A 
ENDBRANCH   7  13
ENDBRANCH   1   7
BRANCH   4  18
ATOM     18  N   UNL     1       9.829  -2.459  23.772  0.00  0.00    +0.000 N 
ATOM     19  H   UNL     1      10.773  -2.686  24.024  0.00  0.00    +0.000 HD
BRANCH  18  20
ATOM     20  C   UNL     1       9.768  -1.266  23.345  0.00  0.00    +0.000 C 
ATOM     21  S   UNL     1       8.642  -1.267  21.958  0.00  0.00    +0.000 S 
ATOM     22  C   UNL     1       9.156   0.092  21.207  0.00  0.00    +0.000 C 
ATOM     23  C   UNL     1       8.030   0.964  20.747  0.00  0.00    +0.000 C 
ATOM     24  N   UNL     1      10.134   0.626  21.975  0.00  0.00    +0.000 NA
ATOM     25  C   UNL     1      10.278  -0.045  23.297  0.00  0.00    +0.000 C 
BRANCH  25  26
ATOM     26  C   UNL     1      10.465   1.092  24.196  0.00  0.00    +0.000 A 
ATOM     27  C   UNL     1       9.303   0.958  25.053  0.00  0.00    +0.000 A 
ATOM     28  C   UNL     1       8.096   1.836  25.179  0.00  0.00    +0.000 A 
ATOM     29  C   UNL     1       8.390   3.022  24.332  0.00  0.00    +0.000 A 
ATOM     30  C   UNL     1       9.483   3.543  23.608  0.00  0.00    +0.000 A 
ATOM     31  C   UNL     1      10.591   2.482  23.657  0.00  0.00    +0.000 A 
ENDBRANCH  25  26
ENDBRANCH  18  20
ENDBRANCH   4  18
TORSDOF 5
ENDMDL
MODEL 9
REMARK VINA RESULT:      -7.7      2.262      3.072
REMARK  Name = 
REMARK  6 active torsions:
REMARK  status: ('A' for Active; 'I' for Inactive)
REMARK    1  A    between atoms: N_5  and  S_7
REMARK    2  A    between atoms: S_7  and  C_10
REMARK    3  A    between atoms: C_15  and  N_16
REMARK    4  A    between atoms: N_16  and  C_18
REMARK    5  A    between atoms: C_20  and  C_21
REMARK    6  A    between atoms: C_26  and  C_27
REMARK                            x       y       z     vdW  Elec       q    Type
REMARK                         _______ _______ _______ _____ _____    ______ ____
ROOT
ATOM      1  C   UNL     1       9.203   1.739  21.753  0.00  0.00    +0.000 A 
ATOM      2  C   UNL     1       8.918   0.351  21.336  0.00  0.00    +0.000 A 
ATOM      3  C   UNL     1       9.429  -0.886  21.915  0.00  0.00    +0.000 A 
ATOM      4  C   UNL     1      10.043  -0.610  23.316  0.00  0.00    +0.000 A 
ATOM      5  C   UNL     1      10.683   0.665  23.705  0.00  0.00    +0.000 A 
ATOM      6  C   UNL     1      10.153   1.875  22.874  0.00  0.00    +0.000 A 
ENDROOT
BRANCH   1   7
ATOM      7  S   UNL     1       7.579   2.365  22.131  0.00  0.00    +0.000 S 
ATOM      8  O   UNL     1       7.542   3.753  21.892  0.00  0.00    +0.000 OA
ATOM      9  O   UNL     1       6.592   1.516  21.597  0.00  0.00    +0.000 OA
BRANCH   7  13
ATOM     10  C   UNL     1       5.961  -0.367  25.179  0.00  0.00    +0.000 A 
ATOM     11  N   UNL     1       6.645   0.331  24.055  0.00  0.00    +0.000 NA
ATOM     12  C   UNL     1       6.449   1.586  24.176  0.00  0.00    +0.000 A 
ATOM     13  N   UNL     1       7.482   2.241  23.805  0.00  0.00    +0.000 N 
ATOM     14  H   UNL     1       8.320   1.902  24.131  0.00  0.00    +0.000 HD
ATOM     15  C   UNL     1       5.758   2.432  25.078  0.00  0.00    +0.000 A 
ATOM     16  C   UNL     1       4.996   1.936  26.172  0.00  0.00    +0.000 A 
ATOM     17  C   UNL     1       4.996   0.451  25.833  0.00  0.00    +0.000 A 
ENDBRANCH   7  13
ENDBRANCH   1   7
BRANCH   4  18
ATOM     18  N   UNL     1       9.338  -1.442  24.197  0.00  0.00    +0.000 N 
ATOM     19  H   UNL     1       9.881  -1.395  25.039  0.00  0.00    +0.000 HD
BRANCH  18  20
ATOM     20  C   UNL     1       8.767  -2.571  24.109  0.00  0.00    +0.000 C 
ATOM     21  S   UNL     1       8.587  -3.195  25.772  0.00  0.00    +0.000 S 
ATOM     22  C   UNL     1       8.448  -4.790  25.437  0.00  0.00    +0.000 C 
ATOM     23  C   UNL     1       7.354  -5.455  26.213  0.00  0.00    +0.000 C 
ATOM     24  N   UNL     1       8.472  -4.917  24.089  0.00  0.00    +0.000 NA
ATOM     25  C   UNL     1       8.410  -3.612  23.373  0.00  0.00    +0.000 C 
BRANCH  25  26
ATOM     26  C   UNL     1       7.480  -3.908  22.285  0.00  0.00    +0.000 A 
ATOM     27  C   UNL     1       6.326  -3.130  22.691  0.00  0.00    +0.000 A 
ATOM     28  C   UNL     1       4.975  -3.584  23.155  0.00  0.00    +0.000 A 
ATOM     29  C   UNL     1       4.977  -5.059  22.963  0.00  0.00    +0.000 A 
ATOM     30  C   UNL     1       5.812  -6.035  22.381  0.00  0.00    +0.000 A 
ATOM     31  C   UNL     1       7.103  -5.319  21.961  0.00  0.00    +0.000 A 
ENDBRANCH  25  26
ENDBRANCH  18  20
ENDBRANCH   4  18
TORSDOF 5
ENDMDL
