MODEL 1
REMARK VINA RESULT:      -8.7      0.000      0.000
REMARK  Name = 
REMARK  6 active torsions:
REMARK  status: ('A' for Active; 'I' for Inactive)
REMARK    1  A    between atoms: C_5  and  C_6
REMARK    2  A    between atoms: C_24  and  N_25
REMARK    3  A    between atoms: C_27  and  C_29
REMARK    4  A    between atoms: C_29  and  C_32
REMARK    5  A    between atoms: C_32  and  C_35
REMARK    6  A    between atoms: C_44  and  C_46
REMARK                            x       y       z     vdW  Elec       q    Type
REMARK                         _______ _______ _______ _____ _____    ______ ____
ROOT
ATOM      1  N   UNL     1       9.318   0.208  25.555  0.00  0.00    +0.000 N 
ATOM      2  H   UNL     1       9.186   1.154  25.972  0.00  0.00    +0.000 HD
ATOM      3  C   UNL     1       8.731  -0.649  26.239  0.00  0.00    +0.000 C 
ATOM      4  O   UNL     1       8.557  -0.390  27.496  0.00  0.00    +0.000 OA
ENDROOT
BRANCH   1   9
ATOM      5  C   UNL     1      10.413  -0.670  22.101  0.00  0.00    +0.000 A 
ATOM      6  C   UNL     1       9.506   0.352  21.474  0.00  0.00    +0.000 A 
ATOM      7  C   UNL     1       8.703   1.363  22.209  0.00  0.00    +0.000 A 
ATOM      8  C   UNL     1       9.103   1.313  23.623  0.00  0.00    +0.000 A 
ATOM      9  C   UNL     1       9.770   0.459  24.432  0.00  0.00    +0.000 A 
ATOM     10  C   UNL     1      10.311  -0.728  23.581  0.00  0.00    +0.000 A 
BRANCH   7  11
ATOM     11  C   UNL     1       7.419   0.974  22.122  0.00  0.00    +0.000 C 
ATOM     12  O   UNL     1       6.722   0.571  23.021  0.00  0.00    +0.000 OA
ATOM     13  N   UNL     1       6.895   1.019  20.816  0.00  0.00    +0.000 N 
ATOM     14  C   UNL     1       6.649  -0.367  20.338  0.00  0.00    +0.000 C 
ATOM     15  C   UNL     1       6.592  -0.452  18.842  0.00  0.00    +0.000 C 
ATOM     16  S   UNL     1       6.113   1.130  18.111  0.00  0.00    +0.000 S 
ATOM     17  C   UNL     1       4.958   1.616  19.423  0.00  0.00    +0.000 C 
ATOM     18  C   UNL     1       5.725   1.913  20.692  0.00  0.00    +0.000 C 
ENDBRANCH   7  11
ENDBRANCH   1   9
BRANCH   3  19
ATOM     19  C   UNL     1       7.786  -1.749  25.738  0.00  0.00    +0.000 C 
BRANCH  19  20
ATOM     20  C   UNL     1       8.460  -3.051  25.897  0.00  0.00    +0.000 C 
BRANCH  20  21
ATOM     21  C   UNL     1       8.896  -3.707  24.621  0.00  0.00    +0.000 C 
ATOM     22  O   UNL     1      10.032  -4.086  24.420  0.00  0.00    +0.000 OA
ATOM     23  N   UNL     1       7.907  -4.016  23.737  0.00  0.00    +0.000 N 
ATOM     24  C   UNL     1       7.705  -5.407  23.357  0.00  0.00    +0.000 C 
ATOM     25  C   UNL     1       6.821  -5.526  22.130  0.00  0.00    +0.000 C 
ATOM     26  C   UNL     1       5.600  -4.616  22.252  0.00  0.00    +0.000 C 
ATOM     27  C   UNL     1       5.943  -3.225  22.552  0.00  0.00    +0.000 C 
ATOM     28  C   UNL     1       7.445  -3.006  22.806  0.00  0.00    +0.000 C 
BRANCH  26  29
ATOM     29  C   UNL     1       4.592  -5.259  23.128  0.00  0.00    +0.000 C 
ATOM     30  O   UNL     1       3.731  -5.989  22.577  0.00  0.00    +0.000 OA
ATOM     31  N   UNL     1       4.280  -4.840  24.376  0.00  0.00    +0.000 N 
ATOM     32  C   UNL     1       2.916  -4.429  24.684  0.00  0.00    +0.000 C 
ATOM     33  C   UNL     1       2.142  -5.387  25.511  0.00  0.00    +0.000 C 
ATOM     34  C   UNL     1       2.815  -6.531  26.186  0.00  0.00    +0.000 C 
ATOM     35  C   UNL     1       4.200  -6.851  25.642  0.00  0.00    +0.000 C 
ATOM     36  C   UNL     1       4.952  -5.538  25.502  0.00  0.00    +0.000 C 
ENDBRANCH  26  29
ENDBRANCH  20  21
ENDBRANCH  19  20
ENDBRANCH   3  19
TORSDOF 6
ENDMDL
MODEL 2
REMARK VINA RESULT:      -8.5      2.821      7.552
REMARK  Name = 
REMARK  6 active torsions:
REMARK  status: ('A' for Active; 'I' for Inactive)
REMARK    1  A    between atoms: C_5  and  C_6
REMARK    2  A    between atoms: C_24  and  N_25
REMARK    3  A    between atoms: C_27  and  C_29
REMARK    4  A    between atoms: C_29  and  C_32
REMARK    5  A    between atoms: C_32  and  C_35
REMARK    6  A    between atoms: C_44  and  C_46
REMARK                            x       y       z     vdW  Elec       q    Type
REMARK                         _______ _______ _______ _____ _____    ______ ____
ROOT
ATOM      1  N   UNL     1       5.190  -6.145  22.630  0.00  0.00    +0.000 N 
ATOM      2  H   UNL     1       4.841  -6.266  21.655  0.00  0.00    +0.000 HD
ATOM      3  C   UNL     1       6.380  -5.786  22.620  0.00  0.00    +0.000 C 
ATOM      4  O   UNL     1       7.096  -6.125  21.595  0.00  0.00    +0.000 OA
ENDROOT
BRANCH   1   9
ATOM      5  C   UNL     1       3.190  -6.755  25.717  0.00  0.00    +0.000 A 
ATOM      6  C   UNL     1       2.654  -5.350  25.736  0.00  0.00    +0.000 A 
ATOM      7  C   UNL     1       2.856  -4.333  24.673  0.00  0.00    +0.000 A 
ATOM      8  C   UNL     1       3.492  -4.999  23.528  0.00  0.00    +0.000 A 
ATOM      9  C   UNL     1       4.150  -6.158  23.300  0.00  0.00    +0.000 A 
ATOM     10  C   UNL     1       4.131  -7.017  24.598  0.00  0.00    +0.000 A 
BRANCH   7  11
ATOM     11  C   UNL     1       3.718  -3.425  25.164  0.00  0.00    +0.000 C 
ATOM     12  O   UNL     1       4.369  -2.631  24.532  0.00  0.00    +0.000 OA
ATOM     13  N   UNL     1       3.875  -3.482  26.562  0.00  0.00    +0.000 N 
ATOM     14  C   UNL     1       5.242  -3.969  26.883  0.00  0.00    +0.000 C 
ATOM     15  C   UNL     1       5.332  -4.542  28.267  0.00  0.00    +0.000 C 
ATOM     16  S   UNL     1       4.062  -3.849  29.350  0.00  0.00    +0.000 S 
ATOM     17  C   UNL     1       4.079  -2.180  28.639  0.00  0.00    +0.000 C 
ATOM     18  C   UNL     1       3.513  -2.219  27.236  0.00  0.00    +0.000 C 
ENDBRANCH   7  11
ENDBRANCH   1   9
BRANCH   3  19
ATOM     19  C   UNL     1       7.007  -4.627  23.406  0.00  0.00    +0.000 C 
BRANCH  19  20
ATOM     20  C   UNL     1       7.845  -5.191  24.480  0.00  0.00    +0.000 C 
BRANCH  20  21
ATOM     21  C   UNL     1       9.088  -4.415  24.797  0.00  0.00    +0.000 C 
ATOM     22  O   UNL     1      10.169  -4.935  24.984  0.00  0.00    +0.000 OA
ATOM     23  N   UNL     1       8.990  -3.059  24.704  0.00  0.00    +0.000 N 
ATOM     24  C   UNL     1       9.842  -2.350  23.759  0.00  0.00    +0.000 C 
ATOM     25  C   UNL     1       9.853  -0.859  24.032  0.00  0.00    +0.000 C 
ATOM     26  C   UNL     1       8.435  -0.340  24.272  0.00  0.00    +0.000 C 
ATOM     27  C   UNL     1       7.715  -1.085  25.306  0.00  0.00    +0.000 C 
ATOM     28  C   UNL     1       8.491  -2.304  25.835  0.00  0.00    +0.000 C 
BRANCH  26  29
ATOM     29  C   UNL     1       7.747  -0.169  22.970  0.00  0.00    +0.000 C 
ATOM     30  O   UNL     1       6.832  -0.981  22.690  0.00  0.00    +0.000 OA
ATOM     31  N   UNL     1       8.256   0.512  21.917  0.00  0.00    +0.000 N 
ATOM     32  C   UNL     1       8.479  -0.171  20.649  0.00  0.00    +0.000 C 
ATOM     33  C   UNL     1       7.515   0.166  19.574  0.00  0.00    +0.000 C 
ATOM     34  C   UNL     1       6.578   1.314  19.720  0.00  0.00    +0.000 C 
ATOM     35  C   UNL     1       6.420   1.813  21.149  0.00  0.00    +0.000 C 
ATOM     36  C   UNL     1       7.810   1.920  21.755  0.00  0.00    +0.000 C 
ENDBRANCH  26  29
ENDBRANCH  20  21
ENDBRANCH  19  20
ENDBRANCH   3  19
TORSDOF 6
ENDMDL
MODEL 3
REMARK VINA RESULT:      -8.5      2.814      4.920
REMARK  Name = 
REMARK  6 active torsions:
REMARK  status: ('A' for Active; 'I' for Inactive)
REMARK    1  A    between atoms: C_5  and  C_6
REMARK    2  A    between atoms: C_24  and  N_25
REMARK    3  A    between atoms: C_27  and  C_29
REMARK    4  A    between atoms: C_29  and  C_32
REMARK    5  A    between atoms: C_32  and  C_35
REMARK    6  A    between atoms: C_44  and  C_46
REMARK                            x       y       z     vdW  Elec       q    Type
REMARK                         _______ _______ _______ _____ _____    ______ ____
ROOT
ATOM      1  N   UNL     1      10.152   3.524  23.204  0.00  0.00    +0.000 N 
ATOM      2  H   UNL     1      10.732   4.123  22.578  0.00  0.00    +0.000 HD
ATOM      3  C   UNL     1       9.249   4.198  23.729  0.00  0.00    +0.000 C 
ATOM      4  O   UNL     1       9.463   5.468  23.877  0.00  0.00    +0.000 OA
ENDROOT
BRANCH   1   9
ATOM      5  C   UNL     1      10.694  -0.111  23.829  0.00  0.00    +0.000 A 
ATOM      6  C   UNL     1       9.871  -0.514  22.637  0.00  0.00    +0.000 A 
ATOM      7  C   UNL     1       9.309   0.411  21.620  0.00  0.00    +0.000 A 
ATOM      8  C   UNL     1       9.864   1.749  21.875  0.00  0.00    +0.000 A 
ATOM      9  C   UNL     1      10.497   2.379  22.890  0.00  0.00    +0.000 A 
ATOM     10  C   UNL     1      10.762   1.358  24.035  0.00  0.00    +0.000 A 
BRANCH   7  11
ATOM     11  C   UNL     1       7.982   0.460  21.832  0.00  0.00    +0.000 C 
ATOM     12  O   UNL     1       7.417   0.419  22.897  0.00  0.00    +0.000 OA
ATOM     13  N   UNL     1       7.216   0.517  20.652  0.00  0.00    +0.000 N 
ATOM     14  C   UNL     1       6.469  -0.757  20.489  0.00  0.00    +0.000 C 
ATOM     15  C   UNL     1       6.056  -0.998  19.067  0.00  0.00    +0.000 C 
ATOM     16  S   UNL     1       5.918   0.554  18.151  0.00  0.00    +0.000 S 
ATOM     17  C   UNL     1       5.284   1.547  19.531  0.00  0.00    +0.000 C 
ATOM     18  C   UNL     1       6.369   1.725  20.571  0.00  0.00    +0.000 C 
ENDBRANCH   7  11
ENDBRANCH   1   9
BRANCH   3  19
ATOM     19  C   UNL     1       7.758   3.849  23.810  0.00  0.00    +0.000 C 
BRANCH  19  20
ATOM     20  C   UNL     1       7.454   3.414  25.185  0.00  0.00    +0.000 C 
BRANCH  20  21
ATOM     21  C   UNL     1       6.074   2.865  25.394  0.00  0.00    +0.000 C 
ATOM     22  O   UNL     1       5.080   3.358  24.902  0.00  0.00    +0.000 OA
ATOM     23  N   UNL     1       5.996   1.669  26.040  0.00  0.00    +0.000 N 
ATOM     24  C   UNL     1       5.395   0.532  25.356  0.00  0.00    +0.000 C 
ATOM     25  C   UNL     1       5.077  -0.594  26.321  0.00  0.00    +0.000 C 
ATOM     26  C   UNL     1       6.251  -0.845  27.267  0.00  0.00    +0.000 C 
ATOM     27  C   UNL     1       6.705   0.363  27.957  0.00  0.00    +0.000 C 
ATOM     28  C   UNL     1       5.990   1.642  27.488  0.00  0.00    +0.000 C 
BRANCH  26  29
ATOM     29  C   UNL     1       7.285  -1.643  26.565  0.00  0.00    +0.000 C 
ATOM     30  O   UNL     1       8.366  -1.068  26.286  0.00  0.00    +0.000 OA
ATOM     31  N   UNL     1       7.038  -2.777  25.870  0.00  0.00    +0.000 N 
ATOM     32  C   UNL     1       7.359  -2.843  24.450  0.00  0.00    +0.000 C 
ATOM     33  C   UNL     1       8.548  -3.661  24.110  0.00  0.00    +0.000 C 
ATOM     34  C   UNL     1       9.176  -4.554  25.124  0.00  0.00    +0.000 C 
ATOM     35  C   UNL     1       8.773  -4.249  26.559  0.00  0.00    +0.000 C 
ATOM     36  C   UNL     1       7.266  -4.061  26.583  0.00  0.00    +0.000 C 
ENDBRANCH  26  29
ENDBRANCH  20  21
ENDBRANCH  19  20
ENDBRANCH   3  19
TORSDOF 6
ENDMDL
MODEL 4
REMARK VINA RESULT:      -8.2      1.708      2.159
REMARK  Name = 
REMARK  6 active torsions:
REMARK  status: ('A' for Active; 'I' for Inactive)
REMARK    1  A    between atoms: C_5  and  C_6
REMARK    2  A    between atoms: C_24  and  N_25
REMARK    3  A    between atoms: C_27  and  C_29
REMARK    4  A    between atoms: C_29  and  C_32
REMARK    5  A    between atoms: C_32  and  C_35
REMARK    6  A    between atoms: C_44  and  C_46
REMARK                            x       y       z     vdW  Elec       q    Type
REMARK                         _______ _______ _______ _____ _____    ______ ____
ROOT
ATOM      1  N   UNL     1       9.501   0.211  25.604  0.00  0.00    +0.000 N 
ATOM      2  H   UNL     1       9.464   1.123  26.108  0.00  0.00    +0.000 HD
ATOM      3  C   UNL     1       8.930  -0.671  26.268  0.00  0.00    +0.000 C 
ATOM      4  O   UNL     1       8.887  -0.514  27.553  0.00  0.00    +0.000 OA
ENDROOT
BRANCH   1   9
ATOM      5  C   UNL     1      10.242  -0.421  22.005  0.00  0.00    +0.000 A 
ATOM      6  C   UNL     1       9.331   0.684  21.547  0.00  0.00    +0.000 A 
ATOM      7  C   UNL     1       8.644   1.661  22.430  0.00  0.00    +0.000 A 
ATOM      8  C   UNL     1       9.166   1.480  23.793  0.00  0.00    +0.000 A 
ATOM      9  C   UNL     1       9.862   0.537  24.466  0.00  0.00    +0.000 A 
ATOM     10  C   UNL     1      10.269  -0.597  23.479  0.00  0.00    +0.000 A 
BRANCH   7  11
ATOM     11  C   UNL     1       7.341   1.332  22.432  0.00  0.00    +0.000 C 
ATOM     12  O   UNL     1       6.822   0.429  21.823  0.00  0.00    +0.000 OA
ATOM     13  N   UNL     1       6.534   2.189  23.204  0.00  0.00    +0.000 N 
ATOM     14  C   UNL     1       5.648   2.973  22.305  0.00  0.00    +0.000 C 
ATOM     15  C   UNL     1       5.149   4.231  22.951  0.00  0.00    +0.000 C 
ATOM     16  S   UNL     1       5.139   4.086  24.753  0.00  0.00    +0.000 S 
ATOM     17  C   UNL     1       4.677   2.332  24.811  0.00  0.00    +0.000 C 
ATOM     18  C   UNL     1       5.819   1.487  24.290  0.00  0.00    +0.000 C 
ENDBRANCH   7  11
ENDBRANCH   1   9
BRANCH   3  19
ATOM     19  C   UNL     1       7.880  -1.672  25.772  0.00  0.00    +0.000 C 
BRANCH  19  20
ATOM     20  C   UNL     1       8.435  -3.033  25.900  0.00  0.00    +0.000 C 
BRANCH  20  21
ATOM     21  C   UNL     1       8.886  -3.664  24.617  0.00  0.00    +0.000 C 
ATOM     22  O   UNL     1      10.026  -4.030  24.419  0.00  0.00    +0.000 OA
ATOM     23  N   UNL     1       7.906  -3.966  23.720  0.00  0.00    +0.000 N 
ATOM     24  C   UNL     1       7.719  -5.353  23.316  0.00  0.00    +0.000 C 
ATOM     25  C   UNL     1       6.845  -5.459  22.081  0.00  0.00    +0.000 C 
ATOM     26  C   UNL     1       5.616  -4.560  22.207  0.00  0.00    +0.000 C 
ATOM     27  C   UNL     1       5.946  -3.172  22.533  0.00  0.00    +0.000 C 
ATOM     28  C   UNL     1       7.443  -2.946  22.802  0.00  0.00    +0.000 C 
BRANCH  26  29
ATOM     29  C   UNL     1       4.607  -5.227  23.065  0.00  0.00    +0.000 C 
ATOM     30  O   UNL     1       3.756  -5.954  22.496  0.00  0.00    +0.000 OA
ATOM     31  N   UNL     1       4.281  -4.830  24.317  0.00  0.00    +0.000 N 
ATOM     32  C   UNL     1       2.911  -4.436  24.621  0.00  0.00    +0.000 C 
ATOM     33  C   UNL     1       2.139  -5.413  25.425  0.00  0.00    +0.000 C 
ATOM     34  C   UNL     1       2.816  -6.562  26.088  0.00  0.00    +0.000 C 
ATOM     35  C   UNL     1       4.208  -6.861  25.550  0.00  0.00    +0.000 C 
ATOM     36  C   UNL     1       4.950  -5.540  25.438  0.00  0.00    +0.000 C 
ENDBRANCH  26  29
ENDBRANCH  20  21
ENDBRANCH  19  20
ENDBRANCH   3  19
TORSDOF 6
ENDMDL
MODEL 5
REMARK VINA RESULT:      -8.2      2.384      4.282
REMARK  Name = 
REMARK  6 active torsions:
REMARK  status: ('A' for Active; 'I' for Inactive)
REMARK    1  A    between atoms: C_5  and  C_6
REMARK    2  A    between atoms: C_24  and  N_25
REMARK    3  A    between atoms: C_27  and  C_29
REMARK    4  A    between atoms: C_29  and  C_32
REMARK    5  A    between atoms: C_32  and  C_35
REMARK    6  A    between atoms: C_44  and  C_46
REMARK                            x       y       z     vdW  Elec       q    Type
REMARK                         _______ _______ _______ _____ _____    ______ ____
ROOT
ATOM      1  N   UNL     1       9.589  -1.755  22.802  0.00  0.00    +0.000 N 
ATOM      2  H   UNL     1      10.405  -2.182  22.313  0.00  0.00    +0.000 HD
ATOM      3  C   UNL     1       9.512  -2.183  23.967  0.00  0.00    +0.000 C 
ATOM      4  O   UNL     1      10.011  -3.355  24.204  0.00  0.00    +0.000 OA
ENDROOT
BRANCH   1   9
ATOM      5  C   UNL     1       7.334   0.944  21.565  0.00  0.00    +0.000 A 
ATOM      6  C   UNL     1       8.406   1.992  21.675  0.00  0.00    +0.000 A 
ATOM      7  C   UNL     1       9.832   1.740  22.004  0.00  0.00    +0.000 A 
ATOM      8  C   UNL     1      10.042   0.285  22.004  0.00  0.00    +0.000 A 
ATOM      9  C   UNL     1       9.272  -0.825  22.051  0.00  0.00    +0.000 A 
ATOM     10  C   UNL     1       7.773  -0.404  22.005  0.00  0.00    +0.000 A 
BRANCH   7  11
ATOM     11  C   UNL     1      10.027   2.193  23.255  0.00  0.00    +0.000 C 
ATOM     12  O   UNL     1      10.985   1.986  23.958  0.00  0.00    +0.000 OA
ATOM     13  N   UNL     1       8.952   2.944  23.766  0.00  0.00    +0.000 N 
ATOM     14  C   UNL     1       8.297   2.182  24.860  0.00  0.00    +0.000 C 
ATOM     15  C   UNL     1       6.887   2.634  25.106  0.00  0.00    +0.000 C 
ATOM     16  S   UNL     1       6.644   4.345  24.576  0.00  0.00    +0.000 S 
ATOM     17  C   UNL     1       8.293   4.938  25.047  0.00  0.00    +0.000 C 
ATOM     18  C   UNL     1       9.334   4.322  24.139  0.00  0.00    +0.000 C 
ENDBRANCH   7  11
ENDBRANCH   1   9
BRANCH   3  19
ATOM     19  C   UNL     1       9.333  -1.360  25.248  0.00  0.00    +0.000 C 
BRANCH  19  20
ATOM     20  C   UNL     1       8.620  -2.188  26.239  0.00  0.00    +0.000 C 
BRANCH  20  21
ATOM     21  C   UNL     1       7.287  -1.659  26.676  0.00  0.00    +0.000 C 
ATOM     22  O   UNL     1       7.133  -0.556  27.159  0.00  0.00    +0.000 OA
ATOM     23  N   UNL     1       6.204  -2.420  26.354  0.00  0.00    +0.000 N 
ATOM     24  C   UNL     1       5.168  -1.853  25.503  0.00  0.00    +0.000 C 
ATOM     25  C   UNL     1       3.903  -2.689  25.534  0.00  0.00    +0.000 C 
ATOM     26  C   UNL     1       4.232  -4.176  25.397  0.00  0.00    +0.000 C 
ATOM     27  C   UNL     1       5.225  -4.639  26.367  0.00  0.00    +0.000 C 
ATOM     28  C   UNL     1       5.816  -3.509  27.227  0.00  0.00    +0.000 C 
BRANCH  26  29
ATOM     29  C   UNL     1       4.490  -4.492  23.972  0.00  0.00    +0.000 C 
ATOM     30  O   UNL     1       3.493  -4.706  23.240  0.00  0.00    +0.000 OA
ATOM     31  N   UNL     1       5.670  -4.944  23.488  0.00  0.00    +0.000 N 
ATOM     32  C   UNL     1       5.733  -6.236  22.818  0.00  0.00    +0.000 C 
ATOM     33  C   UNL     1       5.890  -6.174  21.345  0.00  0.00    +0.000 C 
ATOM     34  C   UNL     1       6.231  -4.894  20.665  0.00  0.00    +0.000 C 
ATOM     35  C   UNL     1       6.000  -3.654  21.518  0.00  0.00    +0.000 C 
ATOM     36  C   UNL     1       6.580  -3.929  22.895  0.00  0.00    +0.000 C 
ENDBRANCH  26  29
ENDBRANCH  20  21
ENDBRANCH  19  20
ENDBRANCH   3  19
TORSDOF 6
ENDMDL
MODEL 6
REMARK VINA RESULT:      -8.2      1.996      3.593
REMARK  Name = 
REMARK  6 active torsions:
REMARK  status: ('A' for Active; 'I' for Inactive)
REMARK    1  A    between atoms: C_5  and  C_6
REMARK    2  A    between atoms: C_24  and  N_25
REMARK    3  A    between atoms: C_27  and  C_29
REMARK    4  A    between atoms: C_29  and  C_32
REMARK    5  A    between atoms: C_32  and  C_35
REMARK    6  A    between atoms: C_44  and  C_46
REMARK                            x       y       z     vdW  Elec       q    Type
REMARK                         _______ _______ _______ _____ _____    ______ ____
ROOT
ATOM      1  N   UNL     1       9.248   1.921  24.196  0.00  0.00    +0.000 N 
ATOM      2  H   UNL     1       9.924   2.714  24.170  0.00  0.00    +0.000 HD
ATOM      3  C   UNL     1       8.188   2.278  24.740  0.00  0.00    +0.000 C 
ATOM      4  O   UNL     1       8.255   3.248  25.596  0.00  0.00    +0.000 OA
ENDROOT
BRANCH   1   9
ATOM      5  C   UNL     1      10.155  -1.514  23.067  0.00  0.00    +0.000 A 
ATOM      6  C   UNL     1       9.495  -1.329  21.729  0.00  0.00    +0.000 A 
ATOM      7  C   UNL     1       8.923  -0.058  21.215  0.00  0.00    +0.000 A 
ATOM      8  C   UNL     1       9.292   1.013  22.153  0.00  0.00    +0.000 A 
ATOM      9  C   UNL     1       9.752   1.100  23.421  0.00  0.00    +0.000 A 
ATOM     10  C   UNL     1      10.031  -0.334  23.960  0.00  0.00    +0.000 A 
BRANCH   7  11
ATOM     11  C   UNL     1       7.586  -0.197  21.241  0.00  0.00    +0.000 C 
ATOM     12  O   UNL     1       6.932  -0.744  22.095  0.00  0.00    +0.000 OA
ATOM     13  N   UNL     1       6.934   0.326  20.108  0.00  0.00    +0.000 N 
ATOM     14  C   UNL     1       6.366  -0.790  19.309  0.00  0.00    +0.000 C 
ATOM     15  C   UNL     1       6.121  -0.402  17.881  0.00  0.00    +0.000 C 
ATOM     16  S   UNL     1       5.883   1.382  17.716  0.00  0.00    +0.000 S 
ATOM     17  C   UNL     1       5.006   1.615  19.287  0.00  0.00    +0.000 C 
ATOM     18  C   UNL     1       5.959   1.385  20.440  0.00  0.00    +0.000 C 
ENDBRANCH   7  11
ENDBRANCH   1   9
BRANCH   3  19
ATOM     19  C   UNL     1       6.760   2.060  24.223  0.00  0.00    +0.000 C 
BRANCH  19  20
ATOM     20  C   UNL     1       6.403   0.644  24.423  0.00  0.00    +0.000 C 
BRANCH  20  21
ATOM     21  C   UNL     1       6.033   0.268  25.827  0.00  0.00    +0.000 C 
ATOM     22  O   UNL     1       5.321   0.951  26.534  0.00  0.00    +0.000 OA
ATOM     23  N   UNL     1       6.406  -0.977  26.233  0.00  0.00    +0.000 N 
ATOM     24  C   UNL     1       5.379  -1.925  26.642  0.00  0.00    +0.000 C 
ATOM     25  C   UNL     1       5.976  -3.109  27.379  0.00  0.00    +0.000 C 
ATOM     26  C   UNL     1       7.210  -3.636  26.647  0.00  0.00    +0.000 C 
ATOM     27  C   UNL     1       8.205  -2.599  26.370  0.00  0.00    +0.000 C 
ATOM     28  C   UNL     1       7.739  -1.184  26.759  0.00  0.00    +0.000 C 
BRANCH  26  29
ATOM     29  C   UNL     1       6.782  -4.474  25.503  0.00  0.00    +0.000 C 
ATOM     30  O   UNL     1       6.575  -5.692  25.725  0.00  0.00    +0.000 OA
ATOM     31  N   UNL     1       6.965  -4.149  24.202  0.00  0.00    +0.000 N 
ATOM     32  C   UNL     1       7.753  -5.020  23.339  0.00  0.00    +0.000 C 
ATOM     33  C   UNL     1       6.970  -5.813  22.361  0.00  0.00    +0.000 C 
ATOM     34  C   UNL     1       5.531  -5.518  22.115  0.00  0.00    +0.000 C 
ATOM     35  C   UNL     1       4.875  -4.667  23.193  0.00  0.00    +0.000 C 
ATOM     36  C   UNL     1       5.816  -3.515  23.504  0.00  0.00    +0.000 C 
ENDBRANCH  26  29
ENDBRANCH  20  21
ENDBRANCH  19  20
ENDBRANCH   3  19
TORSDOF 6
ENDMDL
MODEL 7
REMARK VINA RESULT:      -8.1      2.545      7.652
REMARK  Name = 
REMARK  6 active torsions:
REMARK  status: ('A' for Active; 'I' for Inactive)
REMARK    1  A    between atoms: C_5  and  C_6
REMARK    2  A    between atoms: C_24  and  N_25
REMARK    3  A    between atoms: C_27  and  C_29
REMARK    4  A    between atoms: C_29  and  C_32
REMARK    5  A    between atoms: C_32  and  C_35
REMARK    6  A    between atoms: C_44  and  C_46
REMARK                            x       y       z     vdW  Elec       q    Type
REMARK                         _______ _______ _______ _____ _____    ______ ____
ROOT
ATOM      1  N   UNL     1       8.348  -4.961  24.120  0.00  0.00    +0.000 N 
ATOM      2  H   UNL     1       8.859  -5.774  23.715  0.00  0.00    +0.000 HD
ATOM      3  C   UNL     1       9.076  -4.351  24.923  0.00  0.00    +0.000 C 
ATOM      4  O   UNL     1      10.012  -5.029  25.509  0.00  0.00    +0.000 OA
ENDROOT
BRANCH   1   9
ATOM      5  C   UNL     1       5.975  -6.144  21.498  0.00  0.00    +0.000 A 
ATOM      6  C   UNL     1       4.778  -5.934  22.383  0.00  0.00    +0.000 A 
ATOM      7  C   UNL     1       4.792  -5.288  23.721  0.00  0.00    +0.000 A 
ATOM      8  C   UNL     1       6.132  -4.721  23.931  0.00  0.00    +0.000 A 
ATOM      9  C   UNL     1       7.360  -4.858  23.382  0.00  0.00    +0.000 A 
ATOM     10  C   UNL     1       7.265  -5.812  22.155  0.00  0.00    +0.000 A 
BRANCH   7  11
ATOM     11  C   UNL     1       4.602  -6.265  24.624  0.00  0.00    +0.000 C 
ATOM     12  O   UNL     1       4.480  -7.444  24.400  0.00  0.00    +0.000 OA
ATOM     13  N   UNL     1       4.497  -5.806  25.951  0.00  0.00    +0.000 N 
ATOM     14  C   UNL     1       3.106  -6.007  26.432  0.00  0.00    +0.000 C 
ATOM     15  C   UNL     1       2.767  -5.114  27.588  0.00  0.00    +0.000 C 
ATOM     16  S   UNL     1       4.251  -4.627  28.499  0.00  0.00    +0.000 S 
ATOM     17  C   UNL     1       5.138  -6.196  28.294  0.00  0.00    +0.000 C 
ATOM     18  C   UNL     1       5.529  -6.374  26.843  0.00  0.00    +0.000 C 
ENDBRANCH   7  11
ENDBRANCH   1   9
BRANCH   3  19
ATOM     19  C   UNL     1       9.329  -2.840  24.984  0.00  0.00    +0.000 C 
BRANCH  19  20
ATOM     20  C   UNL     1       8.181  -2.201  25.653  0.00  0.00    +0.000 C 
BRANCH  20  21
ATOM     21  C   UNL     1       8.451  -0.846  26.236  0.00  0.00    +0.000 C 
ATOM     22  O   UNL     1       9.192  -0.663  27.180  0.00  0.00    +0.000 OA
ATOM     23  N   UNL     1       7.948   0.215  25.546  0.00  0.00    +0.000 N 
ATOM     24  C   UNL     1       8.864   1.222  25.029  0.00  0.00    +0.000 C 
ATOM     25  C   UNL     1       8.127   2.479  24.606  0.00  0.00    +0.000 C 
ATOM     26  C   UNL     1       6.883   2.130  23.790  0.00  0.00    +0.000 C 
ATOM     27  C   UNL     1       6.002   1.172  24.459  0.00  0.00    +0.000 C 
ATOM     28  C   UNL     1       6.579   0.628  25.778  0.00  0.00    +0.000 C 
BRANCH  26  29
ATOM     29  C   UNL     1       7.283   1.812  22.398  0.00  0.00    +0.000 C 
ATOM     30  O   UNL     1       7.956   2.672  21.780  0.00  0.00    +0.000 OA
ATOM     31  N   UNL     1       6.680   0.883  21.620  0.00  0.00    +0.000 N 
ATOM     32  C   UNL     1       6.064   1.280  20.360  0.00  0.00    +0.000 C 
ATOM     33  C   UNL     1       6.808   0.880  19.142  0.00  0.00    +0.000 C 
ATOM     34  C   UNL     1       7.940  -0.084  19.220  0.00  0.00    +0.000 C 
ATOM     35  C   UNL     1       8.498  -0.281  20.622  0.00  0.00    +0.000 C 
ATOM     36  C   UNL     1       7.318  -0.458  21.565  0.00  0.00    +0.000 C 
ENDBRANCH  26  29
ENDBRANCH  20  21
ENDBRANCH  19  20
ENDBRANCH   3  19
TORSDOF 6
ENDMDL
MODEL 8
REMARK VINA RESULT:      -7.9      3.103      7.878
REMARK  Name = 
REMARK  6 active torsions:
REMARK  status: ('A' for Active; 'I' for Inactive)
REMARK    1  A    between atoms: C_5  and  C_6
REMARK    2  A    between atoms: C_24  and  N_25
REMARK    3  A    between atoms: C_27  and  C_29
REMARK    4  A    between atoms: C_29  and  C_32
REMARK    5  A    between atoms: C_32  and  C_35
REMARK    6  A    between atoms: C_44  and  C_46
REMARK                            x       y       z     vdW  Elec       q    Type
REMARK                         _______ _______ _______ _____ _____    ______ ____
ROOT
ATOM      1  N   UNL     1       5.952  -2.449  22.017  0.00  0.00    +0.000 N 
ATOM      2  H   UNL     1       5.077  -1.952  21.743  0.00  0.00    +0.000 HD
ATOM      3  C   UNL     1       6.790  -1.640  22.451  0.00  0.00    +0.000 C 
ATOM      4  O   UNL     1       6.713  -0.418  22.026  0.00  0.00    +0.000 OA
ENDROOT
BRANCH   1   9
ATOM      5  C   UNL     1       6.548  -6.125  21.826  0.00  0.00    +0.000 A 
ATOM      6  C   UNL     1       5.857  -6.380  23.137  0.00  0.00    +0.000 A 
ATOM      7  C   UNL     1       5.114  -5.371  23.934  0.00  0.00    +0.000 A 
ATOM      8  C   UNL     1       5.008  -4.148  23.124  0.00  0.00    +0.000 A 
ATOM      9  C   UNL     1       5.605  -3.637  22.024  0.00  0.00    +0.000 A 
ATOM     10  C   UNL     1       6.598  -4.690  21.449  0.00  0.00    +0.000 A 
BRANCH   7  11
ATOM     11  C   UNL     1       5.869  -5.097  25.012  0.00  0.00    +0.000 C 
ATOM     12  O   UNL     1       7.064  -4.930  25.035  0.00  0.00    +0.000 OA
ATOM     13  N   UNL     1       5.148  -5.057  26.221  0.00  0.00    +0.000 N 
ATOM     14  C   UNL     1       5.544  -6.212  27.067  0.00  0.00    +0.000 C 
ATOM     15  C   UNL     1       4.507  -6.546  28.098  0.00  0.00    +0.000 C 
ATOM     16  S   UNL     1       3.493  -5.104  28.502  0.00  0.00    +0.000 S 
ATOM     17  C   UNL     1       4.822  -3.877  28.354  0.00  0.00    +0.000 C 
ATOM     18  C   UNL     1       5.240  -3.751  26.905  0.00  0.00    +0.000 C 
ENDBRANCH   7  11
ENDBRANCH   1   9
BRANCH   3  19
ATOM     19  C   UNL     1       7.606  -1.753  23.745  0.00  0.00    +0.000 C 
BRANCH  19  20
ATOM     20  C   UNL     1       8.873  -2.442  23.438  0.00  0.00    +0.000 C 
BRANCH  20  21
ATOM     21  C   UNL     1       9.935  -1.584  22.817  0.00  0.00    +0.000 C 
ATOM     22  O   UNL     1      10.690  -1.980  21.952  0.00  0.00    +0.000 OA
ATOM     23  N   UNL     1       9.914  -0.265  23.153  0.00  0.00    +0.000 N 
ATOM     24  C   UNL     1       9.731   0.730  22.105  0.00  0.00    +0.000 C 
ATOM     25  C   UNL     1      10.077   2.123  22.595  0.00  0.00    +0.000 C 
ATOM     26  C   UNL     1       9.461   2.384  23.968  0.00  0.00    +0.000 C 
ATOM     27  C   UNL     1       9.790   1.355  24.955  0.00  0.00    +0.000 C 
ATOM     28  C   UNL     1      10.576   0.171  24.365  0.00  0.00    +0.000 C 
BRANCH  26  29
ATOM     29  C   UNL     1       8.026   2.721  23.807  0.00  0.00    +0.000 C 
ATOM     30  O   UNL     1       7.191   1.977  24.378  0.00  0.00    +0.000 OA
ATOM     31  N   UNL     1       7.526   3.494  22.815  0.00  0.00    +0.000 N 
ATOM     32  C   UNL     1       6.539   2.945  21.894  0.00  0.00    +0.000 C 
ATOM     33  C   UNL     1       5.153   3.431  22.094  0.00  0.00    +0.000 C 
ATOM     34  C   UNL     1       4.870   4.590  22.986  0.00  0.00    +0.000 C 
ATOM     35  C   UNL     1       6.005   4.936  23.939  0.00  0.00    +0.000 C 
ATOM     36  C   UNL     1       7.296   4.926  23.137  0.00  0.00    +0.000 C 
ENDBRANCH  26  29
ENDBRANCH  20  21
ENDBRANCH  19  20
ENDBRANCH   3  19
TORSDOF 6
ENDMDL
MODEL 9
REMARK VINA RESULT:      -7.9      2.593      7.142
REMARK  Name = 
REMARK  6 active torsions:
REMARK  status: ('A' for Active; 'I' for Inactive)
REMARK    1  A    between atoms: C_5  and  C_6
REMARK    2  A    between atoms: C_24  and  N_25
REMARK    3  A    between atoms: C_27  and  C_29
REMARK    4  A    between atoms: C_29  and  C_32
REMARK    5  A    between atoms: C_32  and  C_35
REMARK    6  A    between atoms: C_44  and  C_46
REMARK                            x       y       z     vdW  Elec       q    Type
REMARK                         _______ _______ _______ _____ _____    ______ ____
ROOT
ATOM      1  N   UNL     1       6.954  -3.975  22.732  0.00  0.00    +0.000 N 
ATOM      2  H   UNL     1       6.204  -4.646  23.006  0.00  0.00    +0.000 HD
ATOM      3  C   UNL     1       6.534  -3.193  21.861  0.00  0.00    +0.000 C 
ATOM      4  O   UNL     1       5.572  -3.611  21.099  0.00  0.00    +0.000 OA
ENDROOT
BRANCH   1   9
ATOM      5  C   UNL     1       8.897  -2.934  25.739  0.00  0.00    +0.000 A 
ATOM      6  C   UNL     1       8.529  -4.178  26.499  0.00  0.00    +0.000 A 
ATOM      7  C   UNL     1       7.794  -5.344  25.945  0.00  0.00    +0.000 A 
ATOM      8  C   UNL     1       7.673  -5.151  24.493  0.00  0.00    +0.000 A 
ATOM      9  C   UNL     1       7.803  -4.128  23.618  0.00  0.00    +0.000 A 
ATOM     10  C   UNL     1       8.294  -2.864  24.384  0.00  0.00    +0.000 A 
BRANCH   7  11
ATOM     11  C   UNL     1       6.561  -5.314  26.478  0.00  0.00    +0.000 C 
ATOM     12  O   UNL     1       6.280  -5.256  27.650  0.00  0.00    +0.000 OA
ATOM     13  N   UNL     1       5.524  -5.407  25.530  0.00  0.00    +0.000 N 
ATOM     14  C   UNL     1       4.833  -6.713  25.684  0.00  0.00    +0.000 C 
ATOM     15  C   UNL     1       4.095  -7.118  24.443  0.00  0.00    +0.000 C 
ATOM     16  S   UNL     1       3.647  -5.679  23.446  0.00  0.00    +0.000 S 
ATOM     17  C   UNL     1       3.320  -4.562  24.838  0.00  0.00    +0.000 C 
ATOM     18  C   UNL     1       4.617  -4.241  25.548  0.00  0.00    +0.000 C 
ENDBRANCH   7  11
ENDBRANCH   1   9
BRANCH   3  19
ATOM     19  C   UNL     1       6.661  -1.665  21.846  0.00  0.00    +0.000 C 
BRANCH  19  20
ATOM     20  C   UNL     1       6.577  -1.203  20.448  0.00  0.00    +0.000 C 
BRANCH  20  21
ATOM     21  C   UNL     1       7.635  -0.226  20.031  0.00  0.00    +0.000 C 
ATOM     22  O   UNL     1       7.734   0.207  18.901  0.00  0.00    +0.000 OA
ATOM     23  N   UNL     1       8.400   0.293  21.031  0.00  0.00    +0.000 N 
ATOM     24  C   UNL     1       8.396   1.733  21.251  0.00  0.00    +0.000 C 
ATOM     25  C   UNL     1       9.542   2.161  22.147  0.00  0.00    +0.000 C 
ATOM     26  C   UNL     1       9.660   1.235  23.358  0.00  0.00    +0.000 C 
ATOM     27  C   UNL     1       9.742  -0.181  22.996  0.00  0.00    +0.000 C 
ATOM     28  C   UNL     1       9.563  -0.440  21.490  0.00  0.00    +0.000 C 
BRANCH  26  29
ATOM     29  C   UNL     1       8.639   1.610  24.364  0.00  0.00    +0.000 C 
ATOM     30  O   UNL     1       8.836   2.662  25.021  0.00  0.00    +0.000 OA
ATOM     31  N   UNL     1       7.742   0.753  24.904  0.00  0.00    +0.000 N 
ATOM     32  C   UNL     1       7.728   0.528  26.344  0.00  0.00    +0.000 C 
ATOM     33  C   UNL     1       6.594   1.153  27.067  0.00  0.00    +0.000 C 
ATOM     34  C   UNL     1       5.435   1.722  26.326  0.00  0.00    +0.000 C 
ATOM     35  C   UNL     1       5.699   1.967  24.847  0.00  0.00    +0.000 C 
ATOM     36  C   UNL     1       6.388   0.731  24.293  0.00  0.00    +0.000 C 
ENDBRANCH  26  29
ENDBRANCH  20  21
ENDBRANCH  19  20
ENDBRANCH   3  19
TORSDOF 6
ENDMDL
