MODEL 1
REMARK VINA RESULT:      -8.8      0.000      0.000
REMARK  Name = 
REMARK  6 active torsions:
REMARK  status: ('A' for Active; 'I' for Inactive)
REMARK    1  A    between atoms: C_5  and  C_6
REMARK    2  A    between atoms: C_14  and  C_15
REMARK    3  A    between atoms: C_25  and  C_27
REMARK    4  A    between atoms: C_32  and  S_33
REMARK    5  A    between atoms: S_33  and  N_36
REMARK    6  A    between atoms: C_44  and  C_46
REMARK                            x       y       z     vdW  Elec       q    Type
REMARK                         _______ _______ _______ _____ _____    ______ ____
ROOT
ATOM      1  C   UNL     1       8.747  -3.403  24.940  0.00  0.00    +0.000 A 
ATOM      2  C   UNL     1       8.394  -4.850  24.846  0.00  0.00    +0.000 A 
ATOM      3  C   UNL     1       7.686  -5.502  23.728  0.00  0.00    +0.000 A 
ATOM      4  C   UNL     1       7.323  -4.508  22.643  0.00  0.00    +0.000 A 
ATOM      5  C   UNL     1       7.946  -3.201  22.412  0.00  0.00    +0.000 A 
ATOM      6  C   UNL     1       8.717  -2.670  23.666  0.00  0.00    +0.000 A 
ENDROOT
BRANCH   1  13
ATOM      7  C   UNL     1       9.072   1.705  24.042  0.00  0.00    +0.000 C 
ATOM      8  O   UNL     1       9.218   2.738  24.772  0.00  0.00    +0.000 OA
ATOM      9  N   UNL     1       8.714   0.556  24.670  0.00  0.00    +0.000 N 
ATOM     10  C   UNL     1       7.276   0.525  25.013  0.00  0.00    +0.000 C 
ATOM     11  C   UNL     1       6.838  -0.905  25.284  0.00  0.00    +0.000 C 
ATOM     12  N   UNL     1       7.876  -1.638  25.979  0.00  0.00    +0.000 N 
ATOM     13  C   UNL     1       7.858  -2.994  26.010  0.00  0.00    +0.000 C 
ATOM     14  O   UNL     1       7.271  -3.689  26.715  0.00  0.00    +0.000 OA
ATOM     15  C   UNL     1       8.928  -0.915  26.644  0.00  0.00    +0.000 C 
ATOM     16  C   UNL     1       9.616   0.068  25.728  0.00  0.00    +0.000 C 
BRANCH   7  23
ATOM     17  C   UNL     1      10.032   0.521  22.264  0.00  0.00    +0.000 A 
ATOM     18  C   UNL     1       9.240  -0.173  21.364  0.00  0.00    +0.000 A 
ATOM     19  C   UNL     1       8.096   0.205  20.421  0.00  0.00    +0.000 A 
ATOM     20  C   UNL     1       6.858  -0.568  20.874  0.00  0.00    +0.000 C 
ATOM     21  C   UNL     1       7.856   1.612  20.874  0.00  0.00    +0.000 A 
ATOM     22  C   UNL     1       8.254   2.489  21.926  0.00  0.00    +0.000 A 
ATOM     23  C   UNL     1       9.322   1.706  22.724  0.00  0.00    +0.000 A 
ENDBRANCH   7  23
ENDBRANCH   1  13
BRANCH   4  24
ATOM     24  S   UNL     1       5.555  -4.610  22.443  0.00  0.00    +0.000 S 
ATOM     25  O   UNL     1       5.201  -3.480  21.568  0.00  0.00    +0.000 OA
ATOM     26  O   UNL     1       5.378  -5.899  21.679  0.00  0.00    +0.000 OA
BRANCH  24  27
ATOM     27  N   UNL     1       4.605  -4.657  23.680  0.00  0.00    +0.000 NA
ATOM     28  C   UNL     1       3.370  -5.295  23.325  0.00  0.00    +0.000 C 
ATOM     29  C   UNL     1       2.549  -5.630  24.564  0.00  0.00    +0.000 C 
ATOM     30  N   UNL     1       3.499  -5.578  25.714  0.00  0.00    +0.000 N 
ATOM     31  C   UNL     1       4.331  -6.621  25.876  0.00  0.00    +0.000 C 
ATOM     32  O   UNL     1       4.392  -7.537  25.058  0.00  0.00    +0.000 OA
ATOM     33  C   UNL     1       3.982  -4.225  25.969  0.00  0.00    +0.000 C 
ATOM     34  C   UNL     1       4.378  -3.635  24.584  0.00  0.00    +0.000 C 
BRANCH  31  35
ATOM     35  C   UNL     1       5.153  -6.696  27.127  0.00  0.00    +0.000 C 
ATOM     36 CL   UNL     1       4.165  -6.880  28.573  0.00  0.00    +0.000 Cl
ENDBRANCH  31  35
ENDBRANCH  24  27
ENDBRANCH   4  24
TORSDOF 5
ENDMDL
MODEL 2
REMARK VINA RESULT:      -8.6      2.046      3.017
REMARK  Name = 
REMARK  6 active torsions:
REMARK  status: ('A' for Active; 'I' for Inactive)
REMARK    1  A    between atoms: C_5  and  C_6
REMARK    2  A    between atoms: C_14  and  C_15
REMARK    3  A    between atoms: C_25  and  C_27
REMARK    4  A    between atoms: C_32  and  S_33
REMARK    5  A    between atoms: S_33  and  N_36
REMARK    6  A    between atoms: C_44  and  C_46
REMARK                            x       y       z     vdW  Elec       q    Type
REMARK                         _______ _______ _______ _____ _____    ______ ____
ROOT
ATOM      1  C   UNL     1       6.903  -4.092  23.591  0.00  0.00    +0.000 A 
ATOM      2  C   UNL     1       6.773  -5.390  22.865  0.00  0.00    +0.000 A 
ATOM      3  C   UNL     1       5.512  -6.090  22.553  0.00  0.00    +0.000 A 
ATOM      4  C   UNL     1       4.310  -5.334  23.080  0.00  0.00    +0.000 A 
ATOM      5  C   UNL     1       4.256  -3.909  23.421  0.00  0.00    +0.000 A 
ATOM      6  C   UNL     1       5.673  -3.290  23.657  0.00  0.00    +0.000 A 
ENDROOT
BRANCH   1  13
ATOM      7  C   UNL     1       9.797   0.145  24.415  0.00  0.00    +0.000 C 
ATOM      8  O   UNL     1      11.002   0.355  24.767  0.00  0.00    +0.000 OA
ATOM      9  N   UNL     1       9.309  -1.107  24.612  0.00  0.00    +0.000 N 
ATOM     10  C   UNL     1       8.947  -1.354  26.024  0.00  0.00    +0.000 C 
ATOM     11  C   UNL     1       8.014  -2.550  26.118  0.00  0.00    +0.000 C 
ATOM     12  N   UNL     1       8.389  -3.572  25.164  0.00  0.00    +0.000 N 
ATOM     13  C   UNL     1       7.514  -4.551  24.823  0.00  0.00    +0.000 C 
ATOM     14  O   UNL     1       7.285  -5.534  25.376  0.00  0.00    +0.000 OA
ATOM     15  C   UNL     1       9.705  -3.546  24.580  0.00  0.00    +0.000 C 
ATOM     16  C   UNL     1      10.026  -2.211  23.952  0.00  0.00    +0.000 C 
BRANCH   7  23
ATOM     17  C   UNL     1       9.775   1.882  22.844  0.00  0.00    +0.000 A 
ATOM     18  C   UNL     1       9.240   1.690  21.580  0.00  0.00    +0.000 A 
ATOM     19  C   UNL     1       7.873   1.261  21.043  0.00  0.00    +0.000 A 
ATOM     20  C   UNL     1       8.072  -0.048  20.280  0.00  0.00    +0.000 C 
ATOM     21  C   UNL     1       7.216   0.860  22.328  0.00  0.00    +0.000 A 
ATOM     22  C   UNL     1       7.562   0.646  23.695  0.00  0.00    +0.000 A 
ATOM     23  C   UNL     1       9.043   1.076  23.810  0.00  0.00    +0.000 A 
ENDBRANCH   7  23
ENDBRANCH   1  13
BRANCH   4  24
ATOM     24  S   UNL     1       3.445  -6.459  24.158  0.00  0.00    +0.000 S 
ATOM     25  O   UNL     1       2.329  -6.983  23.353  0.00  0.00    +0.000 OA
ATOM     26  O   UNL     1       4.455  -7.559  24.375  0.00  0.00    +0.000 OA
BRANCH  24  27
ATOM     27  N   UNL     1       2.935  -6.000  25.559  0.00  0.00    +0.000 NA
ATOM     28  C   UNL     1       3.650  -6.695  26.592  0.00  0.00    +0.000 C 
ATOM     29  C   UNL     1       3.400  -6.061  27.955  0.00  0.00    +0.000 C 
ATOM     30  N   UNL     1       2.861  -4.696  27.681  0.00  0.00    +0.000 N 
ATOM     31  C   UNL     1       3.737  -3.749  27.305  0.00  0.00    +0.000 C 
ATOM     32  O   UNL     1       4.920  -4.007  27.087  0.00  0.00    +0.000 OA
ATOM     33  C   UNL     1       1.538  -4.739  27.067  0.00  0.00    +0.000 C 
ATOM     34  C   UNL     1       1.619  -5.803  25.933  0.00  0.00    +0.000 C 
BRANCH  31  35
ATOM     35  C   UNL     1       3.266  -2.329  27.218  0.00  0.00    +0.000 C 
ATOM     36 CL   UNL     1       4.453  -1.270  26.464  0.00  0.00    +0.000 Cl
ENDBRANCH  31  35
ENDBRANCH  24  27
ENDBRANCH   4  24
TORSDOF 5
ENDMDL
MODEL 3
REMARK VINA RESULT:      -8.3      2.195      3.644
REMARK  Name = 
REMARK  6 active torsions:
REMARK  status: ('A' for Active; 'I' for Inactive)
REMARK    1  A    between atoms: C_5  and  C_6
REMARK    2  A    between atoms: C_14  and  C_15
REMARK    3  A    between atoms: C_25  and  C_27
REMARK    4  A    between atoms: C_32  and  S_33
REMARK    5  A    between atoms: S_33  and  N_36
REMARK    6  A    between atoms: C_44  and  C_46
REMARK                            x       y       z     vdW  Elec       q    Type
REMARK                         _______ _______ _______ _____ _____    ______ ____
ROOT
ATOM      1  C   UNL     1       7.515  -1.301  22.932  0.00  0.00    +0.000 A 
ATOM      2  C   UNL     1       7.000  -2.081  21.768  0.00  0.00    +0.000 A 
ATOM      3  C   UNL     1       5.894  -3.057  21.796  0.00  0.00    +0.000 A 
ATOM      4  C   UNL     1       5.318  -3.206  23.188  0.00  0.00    +0.000 A 
ATOM      5  C   UNL     1       5.431  -2.244  24.289  0.00  0.00    +0.000 A 
ATOM      6  C   UNL     1       6.607  -1.231  24.086  0.00  0.00    +0.000 A 
ENDROOT
BRANCH   1  13
ATOM      7  C   UNL     1      10.154   3.109  23.702  0.00  0.00    +0.000 C 
ATOM      8  O   UNL     1      11.256   3.582  23.276  0.00  0.00    +0.000 OA
ATOM      9  N   UNL     1       9.946   1.779  23.520  0.00  0.00    +0.000 N 
ATOM     10  C   UNL     1      10.686   0.954  24.498  0.00  0.00    +0.000 C 
ATOM     11  C   UNL     1      10.089  -0.443  24.555  0.00  0.00    +0.000 C 
ATOM     12  N   UNL     1       9.679  -0.881  23.238  0.00  0.00    +0.000 N 
ATOM     13  C   UNL     1       8.817  -1.918  23.095  0.00  0.00    +0.000 C 
ATOM     14  O   UNL     1       9.043  -3.047  23.103  0.00  0.00    +0.000 OA
ATOM     15  C   UNL     1      10.198  -0.209  22.075  0.00  0.00    +0.000 C 
ATOM     16  C   UNL     1       9.985   1.285  22.134  0.00  0.00    +0.000 C 
BRANCH   7  23
ATOM     17  C   UNL     1       8.903   5.076  23.476  0.00  0.00    +0.000 A 
ATOM     18  C   UNL     1       7.590   5.036  23.035  0.00  0.00    +0.000 A 
ATOM     19  C   UNL     1       6.313   4.344  23.516  0.00  0.00    +0.000 A 
ATOM     20  C   UNL     1       5.869   3.386  22.412  0.00  0.00    +0.000 C 
ATOM     21  C   UNL     1       6.893   3.462  24.579  0.00  0.00    +0.000 A 
ATOM     22  C   UNL     1       8.171   3.045  25.054  0.00  0.00    +0.000 A 
ATOM     23  C   UNL     1       9.195   3.875  24.245  0.00  0.00    +0.000 A 
ENDBRANCH   7  23
ENDBRANCH   1  13
BRANCH   4  24
ATOM     24  S   UNL     1       5.458  -4.934  23.605  0.00  0.00    +0.000 S 
ATOM     25  O   UNL     1       4.225  -5.555  23.093  0.00  0.00    +0.000 OA
ATOM     26  O   UNL     1       6.625  -5.388  22.763  0.00  0.00    +0.000 OA
BRANCH  24  27
ATOM     27  N   UNL     1       5.726  -5.389  25.073  0.00  0.00    +0.000 NA
ATOM     28  C   UNL     1       7.127  -5.289  25.368  0.00  0.00    +0.000 C 
ATOM     29  C   UNL     1       7.385  -5.430  26.863  0.00  0.00    +0.000 C 
ATOM     30  N   UNL     1       6.074  -5.184  27.532  0.00  0.00    +0.000 N 
ATOM     31  C   UNL     1       5.661  -3.909  27.635  0.00  0.00    +0.000 C 
ATOM     32  O   UNL     1       6.277  -2.983  27.110  0.00  0.00    +0.000 OA
ATOM     33  C   UNL     1       5.103  -6.234  27.243  0.00  0.00    +0.000 C 
ATOM     34  C   UNL     1       5.177  -6.487  25.708  0.00  0.00    +0.000 C 
BRANCH  31  35
ATOM     35  C   UNL     1       4.456  -3.611  28.473  0.00  0.00    +0.000 C 
ATOM     36 CL   UNL     1       3.044  -3.205  27.502  0.00  0.00    +0.000 Cl
ENDBRANCH  31  35
ENDBRANCH  24  27
ENDBRANCH   4  24
TORSDOF 5
ENDMDL
MODEL 4
REMARK VINA RESULT:      -8.2      2.759      7.620
REMARK  Name = 
REMARK  6 active torsions:
REMARK  status: ('A' for Active; 'I' for Inactive)
REMARK    1  A    between atoms: C_5  and  C_6
REMARK    2  A    between atoms: C_14  and  C_15
REMARK    3  A    between atoms: C_25  and  C_27
REMARK    4  A    between atoms: C_32  and  S_33
REMARK    5  A    between atoms: S_33  and  N_36
REMARK    6  A    between atoms: C_44  and  C_46
REMARK                            x       y       z     vdW  Elec       q    Type
REMARK                         _______ _______ _______ _____ _____    ______ ____
ROOT
ATOM      1  C   UNL     1       8.491  -2.231  23.526  0.00  0.00    +0.000 A 
ATOM      2  C   UNL     1       9.780  -1.938  22.833  0.00  0.00    +0.000 A 
ATOM      3  C   UNL     1      10.634  -0.756  23.048  0.00  0.00    +0.000 A 
ATOM      4  C   UNL     1      10.039   0.182  24.077  0.00  0.00    +0.000 A 
ATOM      5  C   UNL     1       9.045  -0.161  25.100  0.00  0.00    +0.000 A 
ATOM      6  C   UNL     1       8.265  -1.475  24.767  0.00  0.00    +0.000 A 
ENDROOT
BRANCH   1  13
ATOM      7  C   UNL     1       5.349  -6.166  24.810  0.00  0.00    +0.000 C 
ATOM      8  O   UNL     1       4.785  -7.111  24.170  0.00  0.00    +0.000 OA
ATOM      9  N   UNL     1       5.848  -5.139  24.075  0.00  0.00    +0.000 N 
ATOM     10  C   UNL     1       4.793  -4.209  23.620  0.00  0.00    +0.000 C 
ATOM     11  C   UNL     1       5.412  -2.882  23.213  0.00  0.00    +0.000 C 
ATOM     12  N   UNL     1       6.683  -3.088  22.551  0.00  0.00    +0.000 N 
ATOM     13  C   UNL     1       7.566  -2.066  22.422  0.00  0.00    +0.000 C 
ATOM     14  O   UNL     1       7.593  -1.237  21.624  0.00  0.00    +0.000 OA
ATOM     15  C   UNL     1       7.003  -4.389  22.024  0.00  0.00    +0.000 C 
ATOM     16  C   UNL     1       6.859  -5.478  23.059  0.00  0.00    +0.000 C 
BRANCH   7  23
ATOM     17  C   UNL     1       6.663  -5.411  26.596  0.00  0.00    +0.000 A 
ATOM     18  C   UNL     1       6.223  -4.384  27.416  0.00  0.00    +0.000 A 
ATOM     19  C   UNL     1       4.993  -4.161  28.298  0.00  0.00    +0.000 A 
ATOM     20  C   UNL     1       4.241  -2.955  27.736  0.00  0.00    +0.000 C 
ATOM     21  C   UNL     1       4.176  -5.348  27.889  0.00  0.00    +0.000 A 
ATOM     22  C   UNL     1       4.187  -6.376  26.900  0.00  0.00    +0.000 A 
ATOM     23  C   UNL     1       5.522  -6.192  26.141  0.00  0.00    +0.000 A 
ENDBRANCH   7  23
ENDBRANCH   1  13
BRANCH   4  24
ATOM     24  S   UNL     1       9.860   1.762  23.271  0.00  0.00    +0.000 S 
ATOM     25  O   UNL     1      11.002   2.564  23.739  0.00  0.00    +0.000 OA
ATOM     26  O   UNL     1      10.061   1.419  21.815  0.00  0.00    +0.000 OA
BRANCH  24  27
ATOM     27  N   UNL     1       8.536   2.580  23.387  0.00  0.00    +0.000 NA
ATOM     28  C   UNL     1       7.798   2.492  22.160  0.00  0.00    +0.000 C 
ATOM     29  C   UNL     1       6.377   3.015  22.335  0.00  0.00    +0.000 C 
ATOM     30  N   UNL     1       6.121   3.025  23.806  0.00  0.00    +0.000 N 
ATOM     31  C   UNL     1       5.852   1.847  24.395  0.00  0.00    +0.000 C 
ATOM     32  O   UNL     1       5.917   0.784  23.780  0.00  0.00    +0.000 OA
ATOM     33  C   UNL     1       6.945   4.007  24.502  0.00  0.00    +0.000 C 
ATOM     34  C   UNL     1       8.390   3.835  23.949  0.00  0.00    +0.000 C 
BRANCH  31  35
ATOM     35  C   UNL     1       5.394   1.846  25.821  0.00  0.00    +0.000 C 
ATOM     36 CL   UNL     1       5.649   0.292  26.610  0.00  0.00    +0.000 Cl
ENDBRANCH  31  35
ENDBRANCH  24  27
ENDBRANCH   4  24
TORSDOF 5
ENDMDL
MODEL 5
REMARK VINA RESULT:      -7.8      2.519      3.940
REMARK  Name = 
REMARK  6 active torsions:
REMARK  status: ('A' for Active; 'I' for Inactive)
REMARK    1  A    between atoms: C_5  and  C_6
REMARK    2  A    between atoms: C_14  and  C_15
REMARK    3  A    between atoms: C_25  and  C_27
REMARK    4  A    between atoms: C_32  and  S_33
REMARK    5  A    between atoms: S_33  and  N_36
REMARK    6  A    between atoms: C_44  and  C_46
REMARK                            x       y       z     vdW  Elec       q    Type
REMARK                         _______ _______ _______ _____ _____    ______ ____
ROOT
ATOM      1  C   UNL     1       7.367  -1.109  22.958  0.00  0.00    +0.000 A 
ATOM      2  C   UNL     1       6.459  -2.280  22.779  0.00  0.00    +0.000 A 
ATOM      3  C   UNL     1       5.450  -2.754  23.744  0.00  0.00    +0.000 A 
ATOM      4  C   UNL     1       5.437  -1.905  24.998  0.00  0.00    +0.000 A 
ATOM      5  C   UNL     1       5.948  -0.537  25.132  0.00  0.00    +0.000 A 
ATOM      6  C   UNL     1       6.956  -0.156  23.998  0.00  0.00    +0.000 A 
ENDROOT
BRANCH   1  13
ATOM      7  C   UNL     1      10.241   3.155  23.707  0.00  0.00    +0.000 C 
ATOM      8  O   UNL     1      11.357   3.576  23.262  0.00  0.00    +0.000 OA
ATOM      9  N   UNL     1       9.962   1.840  23.520  0.00  0.00    +0.000 N 
ATOM     10  C   UNL     1      10.679   0.970  24.476  0.00  0.00    +0.000 C 
ATOM     11  C   UNL     1      10.014  -0.396  24.535  0.00  0.00    +0.000 C 
ATOM     12  N   UNL     1       9.555  -0.801  23.223  0.00  0.00    +0.000 N 
ATOM     13  C   UNL     1       8.639  -1.793  23.090  0.00  0.00    +0.000 C 
ATOM     14  O   UNL     1       8.808  -2.931  23.085  0.00  0.00    +0.000 OA
ATOM     15  C   UNL     1      10.085  -0.147  22.055  0.00  0.00    +0.000 C 
ATOM     16  C   UNL     1       9.949   1.355  22.129  0.00  0.00    +0.000 C 
BRANCH   7  23
ATOM     17  C   UNL     1       9.103   5.195  23.532  0.00  0.00    +0.000 A 
ATOM     18  C   UNL     1       7.786   5.238  23.105  0.00  0.00    +0.000 A 
ATOM     19  C   UNL     1       6.476   4.612  23.587  0.00  0.00    +0.000 A 
ATOM     20  C   UNL     1       5.966   3.703  22.469  0.00  0.00    +0.000 C 
ATOM     21  C   UNL     1       7.015   3.678  24.626  0.00  0.00    +0.000 A 
ATOM     22  C   UNL     1       8.272   3.179  25.080  0.00  0.00    +0.000 A 
ATOM     23  C   UNL     1       9.333   3.964  24.274  0.00  0.00    +0.000 A 
ENDBRANCH   7  23
ENDBRANCH   1  13
BRANCH   4  24
ATOM     24  S   UNL     1       5.733  -3.017  26.359  0.00  0.00    +0.000 S 
ATOM     25  O   UNL     1       7.192  -3.213  26.386  0.00  0.00    +0.000 OA
ATOM     26  O   UNL     1       5.323  -2.197  27.558  0.00  0.00    +0.000 OA
BRANCH  24  27
ATOM     27  N   UNL     1       4.998  -4.390  26.451  0.00  0.00    +0.000 NA
ATOM     28  C   UNL     1       3.816  -4.260  27.255  0.00  0.00    +0.000 C 
ATOM     29  C   UNL     1       2.921  -5.486  27.118  0.00  0.00    +0.000 C 
ATOM     30  N   UNL     1       3.367  -6.185  25.877  0.00  0.00    +0.000 N 
ATOM     31  C   UNL     1       2.981  -5.664  24.700  0.00  0.00    +0.000 C 
ATOM     32  O   UNL     1       2.374  -4.596  24.630  0.00  0.00    +0.000 OA
ATOM     33  C   UNL     1       4.708  -6.743  26.011  0.00  0.00    +0.000 C 
ATOM     34  C   UNL     1       5.584  -5.626  26.652  0.00  0.00    +0.000 C 
BRANCH  31  35
ATOM     35  C   UNL     1       3.238  -6.447  23.449  0.00  0.00    +0.000 C 
ATOM     36 CL   UNL     1       4.665  -5.883  22.583  0.00  0.00    +0.000 Cl
ENDBRANCH  31  35
ENDBRANCH  24  27
ENDBRANCH   4  24
TORSDOF 5
ENDMDL
MODEL 6
REMARK VINA RESULT:      -7.7      3.711      7.594
REMARK  Name = 
REMARK  6 active torsions:
REMARK  status: ('A' for Active; 'I' for Inactive)
REMARK    1  A    between atoms: C_5  and  C_6
REMARK    2  A    between atoms: C_14  and  C_15
REMARK    3  A    between atoms: C_25  and  C_27
REMARK    4  A    between atoms: C_32  and  S_33
REMARK    5  A    between atoms: S_33  and  N_36
REMARK    6  A    between atoms: C_44  and  C_46
REMARK                            x       y       z     vdW  Elec       q    Type
REMARK                         _______ _______ _______ _____ _____    ______ ____
ROOT
ATOM      1  C   UNL     1       9.806   1.131  23.743  0.00  0.00    +0.000 A 
ATOM      2  C   UNL     1      10.360   2.492  23.483  0.00  0.00    +0.000 A 
ATOM      3  C   UNL     1       9.745   3.772  23.881  0.00  0.00    +0.000 A 
ATOM      4  C   UNL     1       8.428   3.559  24.598  0.00  0.00    +0.000 A 
ATOM      5  C   UNL     1       7.987   2.331  25.267  0.00  0.00    +0.000 A 
ATOM      6  C   UNL     1       8.777   1.067  24.791  0.00  0.00    +0.000 A 
ENDROOT
BRANCH   1  13
ATOM      7  C   UNL     1       8.739  -3.833  24.849  0.00  0.00    +0.000 C 
ATOM      8  O   UNL     1       9.018  -4.953  24.312  0.00  0.00    +0.000 OA
ATOM      9  N   UNL     1       8.931  -2.724  24.090  0.00  0.00    +0.000 N 
ATOM     10  C   UNL     1       7.853  -2.525  23.099  0.00  0.00    +0.000 C 
ATOM     11  C   UNL     1       7.860  -1.088  22.605  0.00  0.00    +0.000 C 
ATOM     12  N   UNL     1       9.216  -0.597  22.471  0.00  0.00    +0.000 N 
ATOM     13  C   UNL     1       9.461   0.735  22.391  0.00  0.00    +0.000 C 
ATOM     14  O   UNL     1       9.410   1.421  21.469  0.00  0.00    +0.000 OA
ATOM     15  C   UNL     1      10.306  -1.536  22.415  0.00  0.00    +0.000 C 
ATOM     16  C   UNL     1      10.294  -2.497  23.580  0.00  0.00    +0.000 C 
BRANCH   7  23
ATOM     17  C   UNL     1       7.751  -2.424  26.439  0.00  0.00    +0.000 A 
ATOM     18  C   UNL     1       6.429  -2.596  26.815  0.00  0.00    +0.000 A 
ATOM     19  C   UNL     1       5.621  -3.748  27.416  0.00  0.00    +0.000 A 
ATOM     20  C   UNL     1       4.542  -4.126  26.401  0.00  0.00    +0.000 C 
ATOM     21  C   UNL     1       6.639  -4.843  27.319  0.00  0.00    +0.000 A 
ATOM     22  C   UNL     1       7.917  -5.077  26.730  0.00  0.00    +0.000 A 
ATOM     23  C   UNL     1       8.340  -3.718  26.125  0.00  0.00    +0.000 A 
ENDBRANCH   7  23
ENDBRANCH   1  13
BRANCH   4  24
ATOM     24  S   UNL     1       7.202   4.462  23.671  0.00  0.00    +0.000 S 
ATOM     25  O   UNL     1       7.682   5.853  23.651  0.00  0.00    +0.000 OA
ATOM     26  O   UNL     1       7.330   3.876  22.286  0.00  0.00    +0.000 OA
BRANCH  24  27
ATOM     27  N   UNL     1       5.694   4.412  24.070  0.00  0.00    +0.000 NA
ATOM     28  C   UNL     1       4.920   3.871  22.989  0.00  0.00    +0.000 C 
ATOM     29  C   UNL     1       3.507   3.526  23.445  0.00  0.00    +0.000 C 
ATOM     30  N   UNL     1       3.559   3.462  24.935  0.00  0.00    +0.000 N 
ATOM     31  C   UNL     1       4.100   2.363  25.488  0.00  0.00    +0.000 C 
ATOM     32  O   UNL     1       4.629   1.486  24.807  0.00  0.00    +0.000 OA
ATOM     33  C   UNL     1       3.812   4.768  25.534  0.00  0.00    +0.000 C 
ATOM     34  C   UNL     1       4.982   5.400  24.725  0.00  0.00    +0.000 C 
BRANCH  31  35
ATOM     35  C   UNL     1       3.986   2.175  26.970  0.00  0.00    +0.000 C 
ATOM     36 CL   UNL     1       5.482   2.562  27.815  0.00  0.00    +0.000 Cl
ENDBRANCH  31  35
ENDBRANCH  24  27
ENDBRANCH   4  24
TORSDOF 5
ENDMDL
MODEL 7
REMARK VINA RESULT:      -7.4      2.279      3.624
REMARK  Name = 
REMARK  6 active torsions:
REMARK  status: ('A' for Active; 'I' for Inactive)
REMARK    1  A    between atoms: C_5  and  C_6
REMARK    2  A    between atoms: C_14  and  C_15
REMARK    3  A    between atoms: C_25  and  C_27
REMARK    4  A    between atoms: C_32  and  S_33
REMARK    5  A    between atoms: S_33  and  N_36
REMARK    6  A    between atoms: C_44  and  C_46
REMARK                            x       y       z     vdW  Elec       q    Type
REMARK                         _______ _______ _______ _____ _____    ______ ____
ROOT
ATOM      1  C   UNL     1       7.374  -2.775  23.700  0.00  0.00    +0.000 A 
ATOM      2  C   UNL     1       7.275  -4.144  23.114  0.00  0.00    +0.000 A 
ATOM      3  C   UNL     1       6.241  -5.149  23.423  0.00  0.00    +0.000 A 
ATOM      4  C   UNL     1       5.255  -4.637  24.452  0.00  0.00    +0.000 A 
ATOM      5  C   UNL     1       4.990  -3.234  24.784  0.00  0.00    +0.000 A 
ATOM      6  C   UNL     1       6.144  -2.278  24.335  0.00  0.00    +0.000 A 
ENDROOT
BRANCH   1  13
ATOM      7  C   UNL     1       9.540   1.765  22.395  0.00  0.00    +0.000 C 
ATOM      8  O   UNL     1      10.710   2.139  22.061  0.00  0.00    +0.000 OA
ATOM      9  N   UNL     1       9.428   0.541  22.972  0.00  0.00    +0.000 N 
ATOM     10  C   UNL     1       9.838   0.549  24.392  0.00  0.00    +0.000 C 
ATOM     11  C   UNL     1       9.284  -0.678  25.099  0.00  0.00    +0.000 C 
ATOM     12  N   UNL     1       9.321  -1.833  24.227  0.00  0.00    +0.000 N 
ATOM     13  C   UNL     1       8.571  -2.929  24.505  0.00  0.00    +0.000 C 
ATOM     14  O   UNL     1       8.807  -3.799  25.220  0.00  0.00    +0.000 OA
ATOM     15  C   UNL     1      10.167  -1.815  23.062  0.00  0.00    +0.000 C 
ATOM     16  C   UNL     1       9.914  -0.608  22.190  0.00  0.00    +0.000 C 
BRANCH   7  23
ATOM     17  C   UNL     1       7.419   1.766  21.399  0.00  0.00    +0.000 A 
ATOM     18  C   UNL     1       6.273   1.670  22.172  0.00  0.00    +0.000 A 
ATOM     19  C   UNL     1       5.674   2.489  23.318  0.00  0.00    +0.000 A 
ATOM     20  C   UNL     1       5.608   1.577  24.543  0.00  0.00    +0.000 C 
ATOM     21  C   UNL     1       6.822   3.413  23.589  0.00  0.00    +0.000 A 
ATOM     22  C   UNL     1       8.189   3.572  23.215  0.00  0.00    +0.000 A 
ATOM     23  C   UNL     1       8.442   2.493  22.136  0.00  0.00    +0.000 A 
ENDBRANCH   7  23
ENDBRANCH   1  13
BRANCH   4  24
ATOM     24  S   UNL     1       5.296  -5.796  25.805  0.00  0.00    +0.000 S 
ATOM     25  O   UNL     1       4.786  -7.059  25.245  0.00  0.00    +0.000 OA
ATOM     26  O   UNL     1       6.773  -5.939  26.079  0.00  0.00    +0.000 OA
BRANCH  24  27
ATOM     27  N   UNL     1       4.590  -5.479  27.159  0.00  0.00    +0.000 NA
ATOM     28  C   UNL     1       5.570  -5.299  28.192  0.00  0.00    +0.000 C 
ATOM     29  C   UNL     1       4.946  -4.694  29.443  0.00  0.00    +0.000 C 
ATOM     30  N   UNL     1       3.646  -4.102  29.009  0.00  0.00    +0.000 N 
ATOM     31  C   UNL     1       3.689  -2.927  28.357  0.00  0.00    +0.000 C 
ATOM     32  O   UNL     1       4.753  -2.404  28.031  0.00  0.00    +0.000 OA
ATOM     33  C   UNL     1       2.687  -5.120  28.596  0.00  0.00    +0.000 C 
ATOM     34  C   UNL     1       3.463  -6.099  27.667  0.00  0.00    +0.000 C 
BRANCH  31  35
ATOM     35  C   UNL     1       2.402  -2.209  28.087  0.00  0.00    +0.000 C 
ATOM     36 CL   UNL     1       1.858  -2.403  26.423  0.00  0.00    +0.000 Cl
ENDBRANCH  31  35
ENDBRANCH  24  27
ENDBRANCH   4  24
TORSDOF 5
ENDMDL
MODEL 8
REMARK VINA RESULT:      -7.4      1.664      2.138
REMARK  Name = 
REMARK  6 active torsions:
REMARK  status: ('A' for Active; 'I' for Inactive)
REMARK    1  A    between atoms: C_5  and  C_6
REMARK    2  A    between atoms: C_14  and  C_15
REMARK    3  A    between atoms: C_25  and  C_27
REMARK    4  A    between atoms: C_32  and  S_33
REMARK    5  A    between atoms: S_33  and  N_36
REMARK    6  A    between atoms: C_44  and  C_46
REMARK                            x       y       z     vdW  Elec       q    Type
REMARK                         _______ _______ _______ _____ _____    ______ ____
ROOT
ATOM      1  C   UNL     1       7.765  -2.602  25.368  0.00  0.00    +0.000 A 
ATOM      2  C   UNL     1       8.053  -3.836  26.156  0.00  0.00    +0.000 A 
ATOM      3  C   UNL     1       7.601  -5.202  25.829  0.00  0.00    +0.000 A 
ATOM      4  C   UNL     1       6.765  -5.225  24.566  0.00  0.00    +0.000 A 
ATOM      5  C   UNL     1       6.754  -4.210  23.508  0.00  0.00    +0.000 A 
ATOM      6  C   UNL     1       7.325  -2.834  23.985  0.00  0.00    +0.000 A 
ENDROOT
BRANCH   1  13
ATOM      7  C   UNL     1       8.310   2.127  23.283  0.00  0.00    +0.000 C 
ATOM      8  O   UNL     1       8.486   3.299  23.748  0.00  0.00    +0.000 OA
ATOM      9  N   UNL     1       7.896   1.175  24.158  0.00  0.00    +0.000 N 
ATOM     10  C   UNL     1       6.453   1.278  24.461  0.00  0.00    +0.000 C 
ATOM     11  C   UNL     1       5.953  -0.028  25.055  0.00  0.00    +0.000 C 
ATOM     12  N   UNL     1       6.949  -0.609  25.932  0.00  0.00    +0.000 N 
ATOM     13  C   UNL     1       6.875  -1.917  26.286  0.00  0.00    +0.000 C 
ATOM     14  O   UNL     1       6.250  -2.401  27.122  0.00  0.00    +0.000 OA
ATOM     15  C   UNL     1       8.018   0.215  26.432  0.00  0.00    +0.000 C 
ATOM     16  C   UNL     1       8.760   0.924  25.325  0.00  0.00    +0.000 C 
BRANCH   7  23
ATOM     17  C   UNL     1       9.509   0.687  21.877  0.00  0.00    +0.000 A 
ATOM     18  C   UNL     1       8.876  -0.366  21.234  0.00  0.00    +0.000 A 
ATOM     19  C   UNL     1       7.700  -0.484  20.262  0.00  0.00    +0.000 A 
ATOM     20  C   UNL     1       6.618  -1.312  20.955  0.00  0.00    +0.000 C 
ATOM     21  C   UNL     1       7.196   0.925  20.310  0.00  0.00    +0.000 A 
ATOM     22  C   UNL     1       7.403   2.120  21.060  0.00  0.00    +0.000 A 
ATOM     23  C   UNL     1       8.582   1.802  22.010  0.00  0.00    +0.000 A 
ENDBRANCH   7  23
ENDBRANCH   1  13
BRANCH   4  24
ATOM     24  S   UNL     1       5.197  -5.943  25.017  0.00  0.00    +0.000 S 
ATOM     25  O   UNL     1       4.892  -6.906  23.946  0.00  0.00    +0.000 OA
ATOM     26  O   UNL     1       5.526  -6.699  26.281  0.00  0.00    +0.000 OA
BRANCH  24  27
ATOM     27  N   UNL     1       3.955  -5.046  25.311  0.00  0.00    +0.000 NA
ATOM     28  C   UNL     1       2.749  -5.772  25.029  0.00  0.00    +0.000 C 
ATOM     29  C   UNL     1       1.530  -5.048  25.586  0.00  0.00    +0.000 C 
ATOM     30  N   UNL     1       2.051  -4.079  26.595  0.00  0.00    +0.000 N 
ATOM     31  C   UNL     1       2.415  -4.569  27.793  0.00  0.00    +0.000 C 
ATOM     32  O   UNL     1       2.425  -5.776  28.025  0.00  0.00    +0.000 OA
ATOM     33  C   UNL     1       2.840  -3.016  25.982  0.00  0.00    +0.000 C 
ATOM     34  C   UNL     1       3.804  -3.713  24.977  0.00  0.00    +0.000 C 
BRANCH  31  35
ATOM     35  C   UNL     1       2.750  -3.605  28.890  0.00  0.00    +0.000 C 
ATOM     36 CL   UNL     1       4.311  -3.944  29.631  0.00  0.00    +0.000 Cl
ENDBRANCH  31  35
ENDBRANCH  24  27
ENDBRANCH   4  24
TORSDOF 5
ENDMDL
MODEL 9
REMARK VINA RESULT:      -7.3      2.789      8.358
REMARK  Name = 
REMARK  6 active torsions:
REMARK  status: ('A' for Active; 'I' for Inactive)
REMARK    1  A    between atoms: C_5  and  C_6
REMARK    2  A    between atoms: C_14  and  C_15
REMARK    3  A    between atoms: C_25  and  C_27
REMARK    4  A    between atoms: C_32  and  S_33
REMARK    5  A    between atoms: S_33  and  N_36
REMARK    6  A    between atoms: C_44  and  C_46
REMARK                            x       y       z     vdW  Elec       q    Type
REMARK                         _______ _______ _______ _____ _____    ______ ____
ROOT
ATOM      1  C   UNL     1       6.554  -4.534  24.811  0.00  0.00    +0.000 A 
ATOM      2  C   UNL     1       7.960  -4.942  24.518  0.00  0.00    +0.000 A 
ATOM      3  C   UNL     1       9.131  -4.047  24.461  0.00  0.00    +0.000 A 
ATOM      4  C   UNL     1       8.745  -2.607  24.727  0.00  0.00    +0.000 A 
ATOM      5  C   UNL     1       7.537  -2.138  25.415  0.00  0.00    +0.000 A 
ATOM      6  C   UNL     1       6.407  -3.220  25.454  0.00  0.00    +0.000 A 
ENDROOT
BRANCH   1  13
ATOM      7  C   UNL     1       2.157  -6.670  26.576  0.00  0.00    +0.000 C 
ATOM      8  O   UNL     1       1.455  -7.680  26.248  0.00  0.00    +0.000 OA
ATOM      9  N   UNL     1       3.080  -6.246  25.674  0.00  0.00    +0.000 N 
ATOM     10  C   UNL     1       2.473  -5.474  24.568  0.00  0.00    +0.000 C 
ATOM     11  C   UNL     1       3.540  -4.657  23.859  0.00  0.00    +0.000 C 
ATOM     12  N   UNL     1       4.783  -5.396  23.775  0.00  0.00    +0.000 N 
ATOM     13  C   UNL     1       5.949  -4.756  23.512  0.00  0.00    +0.000 C 
ATOM     14  O   UNL     1       6.382  -4.441  22.493  0.00  0.00    +0.000 OA
ATOM     15  C   UNL     1       4.772  -6.823  23.968  0.00  0.00    +0.000 C 
ATOM     16  C   UNL     1       4.104  -7.221  25.263  0.00  0.00    +0.000 C 
BRANCH   7  23
ATOM     17  C   UNL     1       2.448  -6.938  28.885  0.00  0.00    +0.000 A 
ATOM     18  C   UNL     1       3.550  -6.397  29.528  0.00  0.00    +0.000 A 
ATOM     19  C   UNL     1       4.129  -4.988  29.674  0.00  0.00    +0.000 A 
ATOM     20  C   UNL     1       5.515  -4.996  29.031  0.00  0.00    +0.000 C 
ATOM     21  C   UNL     1       3.257  -4.259  28.699  0.00  0.00    +0.000 A 
ATOM     22  C   UNL     1       2.288  -4.549  27.692  0.00  0.00    +0.000 A 
ATOM     23  C   UNL     1       2.063  -6.077  27.776  0.00  0.00    +0.000 A 
ENDBRANCH   7  23
ENDBRANCH   1  13
BRANCH   4  24
ATOM     24  S   UNL     1       9.281  -1.674  23.306  0.00  0.00    +0.000 S 
ATOM     25  O   UNL     1      10.521  -2.331  22.859  0.00  0.00    +0.000 OA
ATOM     26  O   UNL     1       8.190  -1.944  22.298  0.00  0.00    +0.000 OA
BRANCH  24  27
ATOM     27  N   UNL     1       9.482  -0.129  23.385  0.00  0.00    +0.000 NA
ATOM     28  C   UNL     1      10.006   0.361  22.142  0.00  0.00    +0.000 C 
ATOM     29  C   UNL     1       9.928   1.881  22.074  0.00  0.00    +0.000 C 
ATOM     30  N   UNL     1       8.947   2.290  23.122  0.00  0.00    +0.000 N 
ATOM     31  C   UNL     1       7.642   2.125  22.846  0.00  0.00    +0.000 C 
ATOM     32  O   UNL     1       7.261   1.563  21.820  0.00  0.00    +0.000 OA
ATOM     33  C   UNL     1       9.437   2.024  24.470  0.00  0.00    +0.000 C 
ATOM     34  C   UNL     1      10.017   0.578  24.445  0.00  0.00    +0.000 C 
BRANCH  31  35
ATOM     35  C   UNL     1       6.631   2.707  23.785  0.00  0.00    +0.000 C 
ATOM     36 CL   UNL     1       5.525   1.494  24.422  0.00  0.00    +0.000 Cl
ENDBRANCH  31  35
ENDBRANCH  24  27
ENDBRANCH   4  24
TORSDOF 5
ENDMDL
