MODEL 1
REMARK VINA RESULT:      -8.7      0.000      0.000
REMARK  Name = 
REMARK  6 active torsions:
REMARK  status: ('A' for Active; 'I' for Inactive)
REMARK    1  A    between atoms: C_3  and  N_4
REMARK    2  A    between atoms: N_15  and  C_16
REMARK    3  A    between atoms: C_29  and  C_30
REMARK    4  A    between atoms: C_30  and  C_33
REMARK    5  A    between atoms: C_33  and  N_36
REMARK    6  A    between atoms: C_38  and  C_40
REMARK                            x       y       z     vdW  Elec       q    Type
REMARK                         _______ _______ _______ _____ _____    ______ ____
ROOT
ATOM      1  C   UNL     1      10.197  -0.339  24.249  0.00  0.00    +0.000 A 
ATOM      2  C   UNL     1       9.850  -1.488  23.106  0.00  0.00    +0.000 A 
ATOM      3  C   UNL     1       9.728  -0.854  21.781  0.00  0.00    +0.000 A 
ATOM      4  C   UNL     1       9.243   0.490  21.340  0.00  0.00    +0.000 A 
ATOM      5  C   UNL     1       7.896   0.613  20.636  0.00  0.00    +0.000 C 
ATOM      6  C   UNL     1       7.364   1.877  21.262  0.00  0.00    +0.000 C 
ATOM      7  N   UNL     1       8.136   2.251  22.398  0.00  0.00    +0.000 N 
ATOM      8  H   UNL     1       8.309   3.186  22.321  0.00  0.00    +0.000 HD
ATOM      9  C   UNL     1       9.355   1.592  22.489  0.00  0.00    +0.000 A 
ATOM     10  C   UNL     1       9.686   0.955  23.816  0.00  0.00    +0.000 A 
ENDROOT
BRANCH   2  11
ATOM     11  N   UNL     1       8.906  -2.288  23.670  0.00  0.00    +0.000 N 
ATOM     12  H   UNL     1       8.415  -2.724  23.020  0.00  0.00    +0.000 HD
ATOM     13  C   UNL     1       9.358  -3.028  24.651  0.00  0.00    +0.000 C 
ATOM     14  O   UNL     1      10.114  -3.951  24.345  0.00  0.00    +0.000 OA
ATOM     15  N   UNL     1       8.613  -3.006  25.792  0.00  0.00    +0.000 N 
ATOM     16  C   UNL     1       7.245  -2.456  25.733  0.00  0.00    +0.000 C 
ATOM     17  C   UNL     1       6.361  -3.601  25.175  0.00  0.00    +0.000 C 
ATOM     18  N   UNL     1       7.104  -4.665  24.770  0.00  0.00    +0.000 NA
ATOM     19  C   UNL     1       7.106  -5.256  23.550  0.00  0.00    +0.000 C 
ATOM     20  C   UNL     1       7.860  -5.284  25.766  0.00  0.00    +0.000 C 
ATOM     21  C   UNL     1       8.659  -4.267  26.586  0.00  0.00    +0.000 C 
ENDBRANCH   2  11
BRANCH   5  22
ATOM     22  C   UNL     1       7.637   0.233  19.339  0.00  0.00    +0.000 C 
BRANCH  22  23
ATOM     23  C   UNL     1       6.180   0.096  18.912  0.00  0.00    +0.000 C 
BRANCH  23  24
ATOM     24  N   UNL     1       5.423  -0.869  19.609  0.00  0.00    +0.000 N 
ATOM     25  H   UNL     1       4.746  -0.598  20.259  0.00  0.00    +0.000 HD
ATOM     26  C   UNL     1       5.795  -2.124  19.896  0.00  0.00    +0.000 C 
ATOM     27  O   UNL     1       5.425  -3.030  19.134  0.00  0.00    +0.000 OA
ATOM     28  C   UNL     1       6.032  -2.464  21.350  0.00  0.00    +0.000 C 
ENDBRANCH  23  24
ENDBRANCH  22  23
ENDBRANCH   5  22
TORSDOF 4
ENDMDL
MODEL 2
REMARK VINA RESULT:      -7.6      1.148      1.790
REMARK  Name = 
REMARK  6 active torsions:
REMARK  status: ('A' for Active; 'I' for Inactive)
REMARK    1  A    between atoms: C_3  and  N_4
REMARK    2  A    between atoms: N_15  and  C_16
REMARK    3  A    between atoms: C_29  and  C_30
REMARK    4  A    between atoms: C_30  and  C_33
REMARK    5  A    between atoms: C_33  and  N_36
REMARK    6  A    between atoms: C_38  and  C_40
REMARK                            x       y       z     vdW  Elec       q    Type
REMARK                         _______ _______ _______ _____ _____    ______ ____
ROOT
ATOM      1  C   UNL     1      10.760   0.661  24.575  0.00  0.00    +0.000 A 
ATOM      2  C   UNL     1      10.511  -0.690  23.648  0.00  0.00    +0.000 A 
ATOM      3  C   UNL     1      10.211  -0.296  22.260  0.00  0.00    +0.000 A 
ATOM      4  C   UNL     1       9.507   0.884  21.670  0.00  0.00    +0.000 A 
ATOM      5  C   UNL     1       8.113   0.712  21.076  0.00  0.00    +0.000 C 
ATOM      6  C   UNL     1       7.443   1.976  21.554  0.00  0.00    +0.000 C 
ATOM      7  N   UNL     1       8.225   2.625  22.551  0.00  0.00    +0.000 N 
ATOM      8  H   UNL     1       8.253   3.550  22.323  0.00  0.00    +0.000 HD
ATOM      9  C   UNL     1       9.530   2.159  22.631  0.00  0.00    +0.000 A 
ATOM     10  C   UNL     1      10.038   1.789  24.003  0.00  0.00    +0.000 A 
ENDROOT
BRANCH   2  11
ATOM     11  N   UNL     1       9.733  -1.511  24.404  0.00  0.00    +0.000 N 
ATOM     12  H   UNL     1       9.463  -1.085  25.178  0.00  0.00    +0.000 HD
ATOM     13  C   UNL     1       8.799  -2.127  23.724  0.00  0.00    +0.000 C 
ATOM     14  O   UNL     1       7.864  -1.436  23.316  0.00  0.00    +0.000 OA
ATOM     15  N   UNL     1       8.711  -3.471  23.934  0.00  0.00    +0.000 N 
ATOM     16  C   UNL     1       9.403  -4.050  25.101  0.00  0.00    +0.000 C 
ATOM     17  C   UNL     1       8.464  -3.797  26.309  0.00  0.00    +0.000 C 
ATOM     18  N   UNL     1       7.409  -3.007  25.975  0.00  0.00    +0.000 NA
ATOM     19  C   UNL     1       7.029  -1.844  26.559  0.00  0.00    +0.000 C 
ATOM     20  C   UNL     1       6.560  -3.522  24.995  0.00  0.00    +0.000 C 
ATOM     21  C   UNL     1       7.340  -4.034  23.780  0.00  0.00    +0.000 C 
ENDBRANCH   2  11
BRANCH   5  22
ATOM     22  C   UNL     1       7.828   0.101  19.876  0.00  0.00    +0.000 C 
BRANCH  22  23
ATOM     23  C   UNL     1       6.421   0.258  19.311  0.00  0.00    +0.000 C 
BRANCH  23  24
ATOM     24  N   UNL     1       5.501  -0.753  19.660  0.00  0.00    +0.000 N 
ATOM     25  H   UNL     1       4.751  -0.561  20.255  0.00  0.00    +0.000 HD
ATOM     26  C   UNL     1       5.738  -2.072  19.701  0.00  0.00    +0.000 C 
ATOM     27  O   UNL     1       5.432  -2.751  18.710  0.00  0.00    +0.000 OA
ATOM     28  C   UNL     1       5.723  -2.738  21.058  0.00  0.00    +0.000 C 
ENDBRANCH  23  24
ENDBRANCH  22  23
ENDBRANCH   5  22
TORSDOF 4
ENDMDL
MODEL 3
REMARK VINA RESULT:      -7.4      2.422      3.795
REMARK  Name = 
REMARK  6 active torsions:
REMARK  status: ('A' for Active; 'I' for Inactive)
REMARK    1  A    between atoms: C_3  and  N_4
REMARK    2  A    between atoms: N_15  and  C_16
REMARK    3  A    between atoms: C_29  and  C_30
REMARK    4  A    between atoms: C_30  and  C_33
REMARK    5  A    between atoms: C_33  and  N_36
REMARK    6  A    between atoms: C_38  and  C_40
REMARK                            x       y       z     vdW  Elec       q    Type
REMARK                         _______ _______ _______ _____ _____    ______ ____
ROOT
ATOM      1  C   UNL     1       8.782  -4.735  24.624  0.00  0.00    +0.000 A 
ATOM      2  C   UNL     1       7.464  -4.572  23.632  0.00  0.00    +0.000 A 
ATOM      3  C   UNL     1       7.756  -3.592  22.571  0.00  0.00    +0.000 A 
ATOM      4  C   UNL     1       8.599  -2.358  22.533  0.00  0.00    +0.000 A 
ATOM      5  C   UNL     1       7.931  -0.987  22.507  0.00  0.00    +0.000 C 
ATOM      6  C   UNL     1       8.833  -0.214  23.435  0.00  0.00    +0.000 C 
ATOM      7  N   UNL     1       9.700  -1.087  24.151  0.00  0.00    +0.000 N 
ATOM      8  H   UNL     1      10.574  -0.707  24.108  0.00  0.00    +0.000 HD
ATOM      9  C   UNL     1       9.760  -2.371  23.628  0.00  0.00    +0.000 A 
ATOM     10  C   UNL     1       9.570  -3.510  24.599  0.00  0.00    +0.000 A 
ENDROOT
BRANCH   2  11
ATOM     11  N   UNL     1       6.389  -4.514  24.463  0.00  0.00    +0.000 N 
ATOM     12  H   UNL     1       5.816  -3.835  24.210  0.00  0.00    +0.000 HD
ATOM     13  C   UNL     1       5.841  -5.680  24.699  0.00  0.00    +0.000 C 
ATOM     14  O   UNL     1       5.229  -6.203  23.766  0.00  0.00    +0.000 OA
ATOM     15  N   UNL     1       5.603  -5.960  26.011  0.00  0.00    +0.000 N 
ATOM     16  C   UNL     1       5.658  -4.858  26.991  0.00  0.00    +0.000 C 
ATOM     17  C   UNL     1       4.284  -4.145  26.891  0.00  0.00    +0.000 C 
ATOM     18  N   UNL     1       3.537  -4.625  25.862  0.00  0.00    +0.000 NA
ATOM     19  C   UNL     1       2.988  -3.922  24.842  0.00  0.00    +0.000 C 
ATOM     20  C   UNL     1       3.205  -5.978  25.940  0.00  0.00    +0.000 C 
ATOM     21  C   UNL     1       4.428  -6.845  26.253  0.00  0.00    +0.000 C 
ENDBRANCH   2  11
BRANCH   5  22
ATOM     22  C   UNL     1       7.291  -0.433  21.421  0.00  0.00    +0.000 C 
BRANCH  22  23
ATOM     23  C   UNL     1       8.135  -0.075  20.203  0.00  0.00    +0.000 C 
BRANCH  23  24
ATOM     24  N   UNL     1       7.438   0.505  19.122  0.00  0.00    +0.000 N 
ATOM     25  H   UNL     1       7.637   1.416  18.832  0.00  0.00    +0.000 HD
ATOM     26  C   UNL     1       6.201   0.198  18.709  0.00  0.00    +0.000 C 
ATOM     27  O   UNL     1       6.080  -0.611  17.776  0.00  0.00    +0.000 OA
ATOM     28  C   UNL     1       5.127   1.248  18.889  0.00  0.00    +0.000 C 
ENDBRANCH  23  24
ENDBRANCH  22  23
ENDBRANCH   5  22
TORSDOF 4
ENDMDL
MODEL 4
REMARK VINA RESULT:      -7.4      1.860      2.713
REMARK  Name = 
REMARK  6 active torsions:
REMARK  status: ('A' for Active; 'I' for Inactive)
REMARK    1  A    between atoms: C_3  and  N_4
REMARK    2  A    between atoms: N_15  and  C_16
REMARK    3  A    between atoms: C_29  and  C_30
REMARK    4  A    between atoms: C_30  and  C_33
REMARK    5  A    between atoms: C_33  and  N_36
REMARK    6  A    between atoms: C_38  and  C_40
REMARK                            x       y       z     vdW  Elec       q    Type
REMARK                         _______ _______ _______ _____ _____    ______ ____
ROOT
ATOM      1  C   UNL     1       8.871  -2.602  25.448  0.00  0.00    +0.000 A 
ATOM      2  C   UNL     1       8.829  -2.945  23.827  0.00  0.00    +0.000 A 
ATOM      3  C   UNL     1       9.374  -1.810  23.061  0.00  0.00    +0.000 A 
ATOM      4  C   UNL     1       9.355  -0.332  23.287  0.00  0.00    +0.000 A 
ATOM      5  C   UNL     1       8.460   0.552  22.426  0.00  0.00    +0.000 C 
ATOM      6  C   UNL     1       7.947   1.525  23.457  0.00  0.00    +0.000 C 
ATOM      7  N   UNL     1       8.238   1.076  24.775  0.00  0.00    +0.000 N 
ATOM      8  H   UNL     1       8.586   1.823  25.254  0.00  0.00    +0.000 HD
ATOM      9  C   UNL     1       9.176   0.054  24.825  0.00  0.00    +0.000 A 
ATOM     10  C   UNL     1       8.818  -1.160  25.646  0.00  0.00    +0.000 A 
ENDROOT
BRANCH   2  11
ATOM     11  N   UNL     1       7.613  -3.513  23.607  0.00  0.00    +0.000 N 
ATOM     12  H   UNL     1       7.474  -3.652  22.705  0.00  0.00    +0.000 HD
ATOM     13  C   UNL     1       7.352  -4.524  24.397  0.00  0.00    +0.000 C 
ATOM     14  O   UNL     1       7.991  -5.559  24.202  0.00  0.00    +0.000 OA
ATOM     15  N   UNL     1       6.133  -4.492  25.007  0.00  0.00    +0.000 N 
ATOM     16  C   UNL     1       5.114  -3.553  24.499  0.00  0.00    +0.000 C 
ATOM     17  C   UNL     1       4.482  -4.253  23.267  0.00  0.00    +0.000 C 
ATOM     18  N   UNL     1       5.140  -5.397  22.941  0.00  0.00    +0.000 NA
ATOM     19  C   UNL     1       5.687  -5.723  21.743  0.00  0.00    +0.000 C 
ATOM     20  C   UNL     1       5.145  -6.389  23.921  0.00  0.00    +0.000 C 
ATOM     21  C   UNL     1       5.546  -5.832  25.290  0.00  0.00    +0.000 C 
ENDBRANCH   2  11
BRANCH   5  22
ATOM     22  C   UNL     1       8.694   0.882  21.110  0.00  0.00    +0.000 C 
BRANCH  22  23
ATOM     23  C   UNL     1       8.174  -0.065  20.034  0.00  0.00    +0.000 C 
BRANCH  23  24
ATOM     24  N   UNL     1       7.433   0.534  18.993  0.00  0.00    +0.000 N 
ATOM     25  H   UNL     1       7.612   1.454  18.720  0.00  0.00    +0.000 HD
ATOM     26  C   UNL     1       6.184   0.224  18.618  0.00  0.00    +0.000 C 
ATOM     27  O   UNL     1       6.037  -0.562  17.671  0.00  0.00    +0.000 OA
ATOM     28  C   UNL     1       5.108   1.258  18.864  0.00  0.00    +0.000 C 
ENDBRANCH  23  24
ENDBRANCH  22  23
ENDBRANCH   5  22
TORSDOF 4
ENDMDL
MODEL 5
REMARK VINA RESULT:      -7.1      2.020      2.997
REMARK  Name = 
REMARK  6 active torsions:
REMARK  status: ('A' for Active; 'I' for Inactive)
REMARK    1  A    between atoms: C_3  and  N_4
REMARK    2  A    between atoms: N_15  and  C_16
REMARK    3  A    between atoms: C_29  and  C_30
REMARK    4  A    between atoms: C_30  and  C_33
REMARK    5  A    between atoms: C_33  and  N_36
REMARK    6  A    between atoms: C_38  and  C_40
REMARK                            x       y       z     vdW  Elec       q    Type
REMARK                         _______ _______ _______ _____ _____    ______ ____
ROOT
ATOM      1  C   UNL     1      10.651  -1.455  23.356  0.00  0.00    +0.000 A 
ATOM      2  C   UNL     1       9.364  -1.475  22.311  0.00  0.00    +0.000 A 
ATOM      3  C   UNL     1       9.184  -0.139  21.714  0.00  0.00    +0.000 A 
ATOM      4  C   UNL     1       9.421   1.243  22.232  0.00  0.00    +0.000 A 
ATOM      5  C   UNL     1       8.233   2.127  22.596  0.00  0.00    +0.000 C 
ATOM      6  C   UNL     1       8.744   2.784  23.853  0.00  0.00    +0.000 C 
ATOM      7  N   UNL     1       9.917   2.136  24.330  0.00  0.00    +0.000 N 
ATOM      8  H   UNL     1      10.545   2.820  24.546  0.00  0.00    +0.000 HD
ATOM      9  C   UNL     1      10.504   1.286  23.403  0.00  0.00    +0.000 A 
ATOM     10  C   UNL     1      10.842  -0.107  23.874  0.00  0.00    +0.000 A 
ENDROOT
BRANCH   2  11
ATOM     11  N   UNL     1       8.388  -2.173  22.950  0.00  0.00    +0.000 N 
ATOM     12  H   UNL     1       8.054  -1.691  23.664  0.00  0.00    +0.000 HD
ATOM     13  C   UNL     1       7.503  -2.704  22.143  0.00  0.00    +0.000 C 
ATOM     14  O   UNL     1       6.730  -1.926  21.581  0.00  0.00    +0.000 OA
ATOM     15  N   UNL     1       7.226  -4.020  22.362  0.00  0.00    +0.000 N 
ATOM     16  C   UNL     1       7.658  -4.631  23.634  0.00  0.00    +0.000 C 
ATOM     17  C   UNL     1       6.581  -4.229  24.674  0.00  0.00    +0.000 C 
ATOM     18  N   UNL     1       5.690  -3.337  24.164  0.00  0.00    +0.000 NA
ATOM     19  C   UNL     1       5.365  -2.118  24.660  0.00  0.00    +0.000 C 
ATOM     20  C   UNL     1       4.947  -3.788  23.073  0.00  0.00    +0.000 C 
ATOM     21  C   UNL     1       5.838  -4.429  22.005  0.00  0.00    +0.000 C 
ENDBRANCH   2  11
BRANCH   5  22
ATOM     22  C   UNL     1       7.392   2.742  21.697  0.00  0.00    +0.000 C 
BRANCH  22  23
ATOM     23  C   UNL     1       6.011   2.132  21.479  0.00  0.00    +0.000 C 
BRANCH  23  24
ATOM     24  N   UNL     1       5.972   0.967  20.684  0.00  0.00    +0.000 N 
ATOM     25  H   UNL     1       6.249   0.104  21.050  0.00  0.00    +0.000 HD
ATOM     26  C   UNL     1       6.073   0.903  19.349  0.00  0.00    +0.000 C 
ATOM     27  O   UNL     1       5.026   0.856  18.686  0.00  0.00    +0.000 OA
ATOM     28  C   UNL     1       7.314   0.256  18.776  0.00  0.00    +0.000 C 
ENDBRANCH  23  24
ENDBRANCH  22  23
ENDBRANCH   5  22
TORSDOF 4
ENDMDL
MODEL 6
REMARK VINA RESULT:      -6.9      2.796      7.192
REMARK  Name = 
REMARK  6 active torsions:
REMARK  status: ('A' for Active; 'I' for Inactive)
REMARK    1  A    between atoms: C_3  and  N_4
REMARK    2  A    between atoms: N_15  and  C_16
REMARK    3  A    between atoms: C_29  and  C_30
REMARK    4  A    between atoms: C_30  and  C_33
REMARK    5  A    between atoms: C_33  and  N_36
REMARK    6  A    between atoms: C_38  and  C_40
REMARK                            x       y       z     vdW  Elec       q    Type
REMARK                         _______ _______ _______ _____ _____    ______ ____
ROOT
ATOM      1  C   UNL     1       7.317  -4.861  22.247  0.00  0.00    +0.000 A 
ATOM      2  C   UNL     1       7.742  -4.618  23.831  0.00  0.00    +0.000 A 
ATOM      3  C   UNL     1       6.863  -5.409  24.711  0.00  0.00    +0.000 A 
ATOM      4  C   UNL     1       5.429  -5.822  24.607  0.00  0.00    +0.000 A 
ATOM      5  C   UNL     1       4.386  -5.157  25.499  0.00  0.00    +0.000 C 
ATOM      6  C   UNL     1       3.240  -5.007  24.530  0.00  0.00    +0.000 C 
ATOM      7  N   UNL     1       3.665  -5.245  23.193  0.00  0.00    +0.000 N 
ATOM      8  H   UNL     1       3.018  -5.821  22.793  0.00  0.00    +0.000 HD
ATOM      9  C   UNL     1       4.907  -5.859  23.100  0.00  0.00    +0.000 A 
ATOM     10  C   UNL     1       5.910  -5.228  22.166  0.00  0.00    +0.000 A 
ENDROOT
BRANCH   2  11
ATOM     11  N   UNL     1       7.952  -3.279  23.950  0.00  0.00    +0.000 N 
ATOM     12  H   UNL     1       7.754  -2.991  24.805  0.00  0.00    +0.000 HD
ATOM     13  C   UNL     1       9.094  -2.878  23.451  0.00  0.00    +0.000 C 
ATOM     14  O   UNL     1      10.111  -3.202  24.066  0.00  0.00    +0.000 OA
ATOM     15  N   UNL     1       9.023  -1.799  22.621  0.00  0.00    +0.000 N 
ATOM     16  C   UNL     1       7.787  -0.993  22.612  0.00  0.00    +0.000 C 
ATOM     17  C   UNL     1       7.901  -0.047  23.836  0.00  0.00    +0.000 C 
ATOM     18  N   UNL     1       8.979  -0.344  24.609  0.00  0.00    +0.000 NA
ATOM     19  C   UNL     1       8.993  -0.626  25.935  0.00  0.00    +0.000 C 
ATOM     20  C   UNL     1      10.219  -0.227  23.981  0.00  0.00    +0.000 C 
ATOM     21  C   UNL     1      10.237  -0.935  22.623  0.00  0.00    +0.000 C 
ENDBRANCH   2  11
BRANCH   5  22
ATOM     22  C   UNL     1       4.225  -5.388  26.846  0.00  0.00    +0.000 C 
BRANCH  22  23
ATOM     23  C   UNL     1       4.155  -6.837  27.319  0.00  0.00    +0.000 C 
BRANCH  23  24
ATOM     24  N   UNL     1       5.171  -7.242  28.210  0.00  0.00    +0.000 N 
ATOM     25  H   UNL     1       5.076  -8.061  28.734  0.00  0.00    +0.000 HD
ATOM     26  C   UNL     1       6.053  -6.449  28.834  0.00  0.00    +0.000 C 
ATOM     27  O   UNL     1       7.173  -6.306  28.322  0.00  0.00    +0.000 OA
ATOM     28  C   UNL     1       5.930  -6.318  30.336  0.00  0.00    +0.000 C 
ENDBRANCH  23  24
ENDBRANCH  22  23
ENDBRANCH   5  22
TORSDOF 4
ENDMDL
MODEL 7
REMARK VINA RESULT:      -6.6      3.047      6.799
REMARK  Name = 
REMARK  6 active torsions:
REMARK  status: ('A' for Active; 'I' for Inactive)
REMARK    1  A    between atoms: C_3  and  N_4
REMARK    2  A    between atoms: N_15  and  C_16
REMARK    3  A    between atoms: C_29  and  C_30
REMARK    4  A    between atoms: C_30  and  C_33
REMARK    5  A    between atoms: C_33  and  N_36
REMARK    6  A    between atoms: C_38  and  C_40
REMARK                            x       y       z     vdW  Elec       q    Type
REMARK                         _______ _______ _______ _____ _____    ______ ____
ROOT
ATOM      1  C   UNL     1      10.008   1.015  22.204  0.00  0.00    +0.000 A 
ATOM      2  C   UNL     1       9.934   1.086  23.858  0.00  0.00    +0.000 A 
ATOM      3  C   UNL     1      10.123  -0.261  24.425  0.00  0.00    +0.000 A 
ATOM      4  C   UNL     1       9.755  -1.627  23.940  0.00  0.00    +0.000 A 
ATOM      5  C   UNL     1       8.608  -2.381  24.604  0.00  0.00    +0.000 C 
ATOM      6  C   UNL     1       7.946  -3.006  23.402  0.00  0.00    +0.000 C 
ATOM      7  N   UNL     1       8.434  -2.435  22.194  0.00  0.00    +0.000 N 
ATOM      8  H   UNL     1       8.620  -3.158  21.600  0.00  0.00    +0.000 HD
ATOM      9  C   UNL     1       9.598  -1.695  22.353  0.00  0.00    +0.000 A 
ATOM     10  C   UNL     1       9.612  -0.312  21.751  0.00  0.00    +0.000 A 
ENDROOT
BRANCH   2  11
ATOM     11  N   UNL     1       8.884   1.903  24.140  0.00  0.00    +0.000 N 
ATOM     12  H   UNL     1       8.688   1.884  25.043  0.00  0.00    +0.000 HD
ATOM     13  C   UNL     1       8.973   3.088  23.590  0.00  0.00    +0.000 C 
ATOM     14  O   UNL     1       9.828   3.848  24.047  0.00  0.00    +0.000 OA
ATOM     15  N   UNL     1       7.860   3.512  22.929  0.00  0.00    +0.000 N 
ATOM     16  C   UNL     1       6.587   2.800  23.158  0.00  0.00    +0.000 C 
ATOM     17  C   UNL     1       6.023   3.374  24.484  0.00  0.00    +0.000 C 
ATOM     18  N   UNL     1       6.909   4.205  25.095  0.00  0.00    +0.000 NA
ATOM     19  C   UNL     1       7.387   4.116  26.361  0.00  0.00    +0.000 C 
ATOM     20  C   UNL     1       7.270   5.339  24.368  0.00  0.00    +0.000 C 
ATOM     21  C   UNL     1       7.664   4.990  22.930  0.00  0.00    +0.000 C 
ENDBRANCH   2  11
BRANCH   5  22
ATOM     22  C   UNL     1       8.657  -2.971  25.847  0.00  0.00    +0.000 C 
BRANCH  22  23
ATOM     23  C   UNL     1       9.350  -4.324  25.967  0.00  0.00    +0.000 C 
BRANCH  23  24
ATOM     24  N   UNL     1       8.499  -5.439  26.122  0.00  0.00    +0.000 N 
ATOM     25  H   UNL     1       8.490  -6.156  25.459  0.00  0.00    +0.000 HD
ATOM     26  C   UNL     1       7.335  -5.472  26.785  0.00  0.00    +0.000 C 
ATOM     27  O   UNL     1       7.343  -5.874  27.959  0.00  0.00    +0.000 OA
ATOM     28  C   UNL     1       6.076  -5.667  25.970  0.00  0.00    +0.000 C 
ENDBRANCH  23  24
ENDBRANCH  22  23
ENDBRANCH   5  22
TORSDOF 4
ENDMDL
MODEL 8
REMARK VINA RESULT:      -6.6      1.720      2.401
REMARK  Name = 
REMARK  6 active torsions:
REMARK  status: ('A' for Active; 'I' for Inactive)
REMARK    1  A    between atoms: C_3  and  N_4
REMARK    2  A    between atoms: N_15  and  C_16
REMARK    3  A    between atoms: C_29  and  C_30
REMARK    4  A    between atoms: C_30  and  C_33
REMARK    5  A    between atoms: C_33  and  N_36
REMARK    6  A    between atoms: C_38  and  C_40
REMARK                            x       y       z     vdW  Elec       q    Type
REMARK                         _______ _______ _______ _____ _____    ______ ____
ROOT
ATOM      1  C   UNL     1       8.237  -0.243  26.708  0.00  0.00    +0.000 A 
ATOM      2  C   UNL     1       8.998  -0.872  25.377  0.00  0.00    +0.000 A 
ATOM      3  C   UNL     1       9.232   0.193  24.385  0.00  0.00    +0.000 A 
ATOM      4  C   UNL     1       8.468   1.426  24.022  0.00  0.00    +0.000 A 
ATOM      5  C   UNL     1       7.696   1.476  22.708  0.00  0.00    +0.000 C 
ATOM      6  C   UNL     1       6.442   2.190  23.144  0.00  0.00    +0.000 C 
ATOM      7  N   UNL     1       6.354   2.253  24.563  0.00  0.00    +0.000 N 
ATOM      8  H   UNL     1       6.111   3.147  24.787  0.00  0.00    +0.000 HD
ATOM      9  C   UNL     1       7.543   1.951  25.212  0.00  0.00    +0.000 A 
ATOM     10  C   UNL     1       7.472   0.936  26.326  0.00  0.00    +0.000 A 
ENDROOT
BRANCH   2  11
ATOM     11  N   UNL     1       8.362  -2.045  25.116  0.00  0.00    +0.000 N 
ATOM     12  H   UNL     1       7.761  -1.945  24.422  0.00  0.00    +0.000 HD
ATOM     13  C   UNL     1       9.165  -3.077  25.043  0.00  0.00    +0.000 C 
ATOM     14  O   UNL     1       9.906  -3.134  24.061  0.00  0.00    +0.000 OA
ATOM     15  N   UNL     1       8.786  -4.167  25.769  0.00  0.00    +0.000 N 
ATOM     16  C   UNL     1       7.403  -4.229  26.281  0.00  0.00    +0.000 C 
ATOM     17  C   UNL     1       6.541  -4.719  25.089  0.00  0.00    +0.000 C 
ATOM     18  N   UNL     1       7.258  -4.784  23.936  0.00  0.00    +0.000 NA
ATOM     19  C   UNL     1       6.978  -4.183  22.753  0.00  0.00    +0.000 C 
ATOM     20  C   UNL     1       8.339  -5.665  23.950  0.00  0.00    +0.000 C 
ATOM     21  C   UNL     1       9.212  -5.474  25.194  0.00  0.00    +0.000 C 
ENDBRANCH   2  11
BRANCH   5  22
ATOM     22  C   UNL     1       8.258   1.606  21.458  0.00  0.00    +0.000 C 
BRANCH  22  23
ATOM     23  C   UNL     1       8.302   0.371  20.564  0.00  0.00    +0.000 C 
BRANCH  23  24
ATOM     24  N   UNL     1       7.572   0.458  19.360  0.00  0.00    +0.000 N 
ATOM     25  H   UNL     1       7.841   1.082  18.658  0.00  0.00    +0.000 HD
ATOM     26  C   UNL     1       6.274   0.171  19.187  0.00  0.00    +0.000 C 
ATOM     27  O   UNL     1       5.976  -0.957  18.769  0.00  0.00    +0.000 OA
ATOM     28  C   UNL     1       5.345   1.321  18.868  0.00  0.00    +0.000 C 
ENDBRANCH  23  24
ENDBRANCH  22  23
ENDBRANCH   5  22
TORSDOF 4
ENDMDL
MODEL 9
REMARK VINA RESULT:      -6.5      2.515      4.504
REMARK  Name = 
REMARK  6 active torsions:
REMARK  status: ('A' for Active; 'I' for Inactive)
REMARK    1  A    between atoms: C_3  and  N_4
REMARK    2  A    between atoms: N_15  and  C_16
REMARK    3  A    between atoms: C_29  and  C_30
REMARK    4  A    between atoms: C_30  and  C_33
REMARK    5  A    between atoms: C_33  and  N_36
REMARK    6  A    between atoms: C_38  and  C_40
REMARK                            x       y       z     vdW  Elec       q    Type
REMARK                         _______ _______ _______ _____ _____    ______ ____
ROOT
ATOM      1  C   UNL     1       7.568  -0.687  21.251  0.00  0.00    +0.000 A 
ATOM      2  C   UNL     1       6.832  -0.407  22.710  0.00  0.00    +0.000 A 
ATOM      3  C   UNL     1       6.932   1.022  23.053  0.00  0.00    +0.000 A 
ATOM      4  C   UNL     1       7.972   2.061  22.780  0.00  0.00    +0.000 A 
ATOM      5  C   UNL     1       8.868   2.550  23.913  0.00  0.00    +0.000 C 
ATOM      6  C   UNL     1      10.193   2.653  23.202  0.00  0.00    +0.000 C 
ATOM      7  N   UNL     1      10.146   2.008  21.934  0.00  0.00    +0.000 N 
ATOM      8  H   UNL     1      10.548   2.602  21.305  0.00  0.00    +0.000 HD
ATOM      9  C   UNL     1       8.859   1.722  21.498  0.00  0.00    +0.000 A 
ATOM     10  C   UNL     1       8.600   0.314  21.021  0.00  0.00    +0.000 A 
ENDROOT
BRANCH   2  11
ATOM     11  N   UNL     1       7.230  -1.426  23.519  0.00  0.00    +0.000 N 
ATOM     12  H   UNL     1       7.009  -1.250  24.399  0.00  0.00    +0.000 HD
ATOM     13  C   UNL     1       6.914  -2.614  23.067  0.00  0.00    +0.000 C 
ATOM     14  O   UNL     1       5.720  -2.916  23.091  0.00  0.00    +0.000 OA
ATOM     15  N   UNL     1       7.925  -3.527  23.064  0.00  0.00    +0.000 N 
ATOM     16  C   UNL     1       9.143  -3.236  23.844  0.00  0.00    +0.000 C 
ATOM     17  C   UNL     1       8.800  -3.617  25.308  0.00  0.00    +0.000 C 
ATOM     18  N   UNL     1       7.486  -3.935  25.454  0.00  0.00    +0.000 NA
ATOM     19  C   UNL     1       6.594  -3.386  26.315  0.00  0.00    +0.000 C 
ATOM     20  C   UNL     1       7.047  -5.032  24.713  0.00  0.00    +0.000 C 
ATOM     21  C   UNL     1       7.486  -4.939  23.248  0.00  0.00    +0.000 C 
ENDBRANCH   2  11
BRANCH   5  22
ATOM     22  C   UNL     1       8.478   3.387  24.933  0.00  0.00    +0.000 C 
BRANCH  22  23
ATOM     23  C   UNL     1       7.315   2.944  25.815  0.00  0.00    +0.000 C 
BRANCH  23  24
ATOM     24  N   UNL     1       7.618   1.965  26.785  0.00  0.00    +0.000 N 
ATOM     25  H   UNL     1       8.353   2.098  27.415  0.00  0.00    +0.000 HD
ATOM     26  C   UNL     1       7.378   0.649  26.698  0.00  0.00    +0.000 C 
ATOM     27  O   UNL     1       6.342   0.209  27.220  0.00  0.00    +0.000 OA
ATOM     28  C   UNL     1       8.574  -0.271  26.594  0.00  0.00    +0.000 C 
ENDBRANCH  23  24
ENDBRANCH  22  23
ENDBRANCH   5  22
TORSDOF 4
ENDMDL
