MODEL 1
REMARK VINA RESULT:      -9.0      0.000      0.000
REMARK  Name = 
REMARK  10 active torsions:
REMARK  status: ('A' for Active; 'I' for Inactive)
REMARK    1  A    between atoms: C_5  and  C_6
REMARK    2  A    between atoms: C_10  and  S_11
REMARK    3  A    between atoms: S_11  and  N_14
REMARK    4  A    between atoms: C_22  and  C_24
REMARK    5  A    between atoms: C_24  and  C_27
REMARK    6  A    between atoms: C_36  and  C_37
REMARK    7  A    between atoms: C_37  and  C_40
REMARK    8  A    between atoms: C_40  and  N_43
REMARK    9  A    between atoms: C_45  and  C_47
REMARK   10  A    between atoms: C_63  and  C_64
REMARK                            x       y       z     vdW  Elec       q    Type
REMARK                         _______ _______ _______ _____ _____    ______ ____
ROOT
ATOM      1  N   UNL     1       6.016  -5.533  25.520  0.00  0.00    +0.000 NA
ATOM      2  C   UNL     1       6.538  -5.363  24.236  0.00  0.00    +0.000 C 
ATOM      3  C   UNL     1       7.089  -3.931  24.090  0.00  0.00    +0.000 C 
ATOM      4  N   UNL     1       7.905  -3.592  25.260  0.00  0.00    +0.000 N 
ATOM      5  C   UNL     1       9.001  -2.769  25.064  0.00  0.00    +0.000 C 
ATOM      6  O   UNL     1       9.806  -3.488  24.262  0.00  0.00    +0.000 OA
ATOM      7  C   UNL     1       8.213  -4.689  26.191  0.00  0.00    +0.000 C 
ATOM      8  C   UNL     1       7.062  -5.615  26.471  0.00  0.00    +0.000 C 
ENDROOT
BRANCH   1   9
ATOM      9  S   UNL     1       4.819  -6.548  25.743  0.00  0.00    +0.000 S 
ATOM     10  O   UNL     1       4.471  -7.397  24.770  0.00  0.00    +0.000 OA
ATOM     11  O   UNL     1       5.076  -7.260  27.068  0.00  0.00    +0.000 OA
BRANCH   9  16
ATOM     12  C   UNL     1       4.278  -2.671  26.411  0.00  0.00    +0.000 A 
ATOM     13  C   UNL     1       3.430  -3.218  25.267  0.00  0.00    +0.000 A 
ATOM     14  C   UNL     1       3.041  -4.636  25.159  0.00  0.00    +0.000 A 
ATOM     15  C   UNL     1       3.019  -5.056  23.845  0.00  0.00    +0.000 C 
ATOM     16  C   UNL     1       3.379  -5.465  26.354  0.00  0.00    +0.000 A 
ATOM     17  C   UNL     1       3.793  -4.883  27.678  0.00  0.00    +0.000 A 
ATOM     18  C   UNL     1       4.061  -3.360  27.682  0.00  0.00    +0.000 A 
ATOM     19  C   UNL     1       3.401  -2.538  28.797  0.00  0.00    +0.000 C 
ENDBRANCH   9  16
ENDBRANCH   1   9
BRANCH   5  20
ATOM     20  C   UNL     1       9.192  -1.402  25.068  0.00  0.00    +0.000 C 
BRANCH  20  21
ATOM     21  C   UNL     1      10.200  -0.593  24.307  0.00  0.00    +0.000 A 
ATOM     22  C   UNL     1      10.006   0.842  24.699  0.00  0.00    +0.000 A 
ATOM     23  C   UNL     1       9.731   2.012  23.906  0.00  0.00    +0.000 A 
ATOM     24  C   UNL     1       9.783   1.685  22.435  0.00  0.00    +0.000 A 
ATOM     25  C   UNL     1       9.906   0.266  21.799  0.00  0.00    +0.000 A 
ATOM     26  C   UNL     1      10.331  -0.756  22.820  0.00  0.00    +0.000 A 
ATOM     27  C   UNL     1       8.646   0.050  20.956  0.00  0.00    +0.000 C 
ATOM     28  C   UNL     1       8.198   1.495  20.739  0.00  0.00    +0.000 C 
ATOM     29  N   UNL     1       8.844   2.357  21.631  0.00  0.00    +0.000 N 
ATOM     30  H   UNL     1       9.366   2.955  21.075  0.00  0.00    +0.000 HD
BRANCH  27  31
ATOM     31  C   UNL     1       7.599  -0.735  21.629  0.00  0.00    +0.000 C 
BRANCH  31  32
ATOM     32  C   UNL     1       6.511  -1.409  20.881  0.00  0.00    +0.000 C 
BRANCH  32  33
ATOM     33  N   UNL     1       5.637  -0.607  20.048  0.00  0.00    +0.000 N 
ATOM     34  H   UNL     1       5.328   0.222  20.472  0.00  0.00    +0.000 HD
ATOM     35  C   UNL     1       5.919  -0.304  18.766  0.00  0.00    +0.000 C 
ATOM     36  O   UNL     1       6.412  -1.205  18.048  0.00  0.00    +0.000 OA
ATOM     37  C   UNL     1       5.525   0.961  18.097  0.00  0.00    +0.000 C 
ENDBRANCH  32  33
ENDBRANCH  31  32
ENDBRANCH  27  31
ENDBRANCH  20  21
ENDBRANCH   5  20
TORSDOF 7
ENDMDL
MODEL 2
REMARK VINA RESULT:      -8.7      1.250      1.783
REMARK  Name = 
REMARK  10 active torsions:
REMARK  status: ('A' for Active; 'I' for Inactive)
REMARK    1  A    between atoms: C_5  and  C_6
REMARK    2  A    between atoms: C_10  and  S_11
REMARK    3  A    between atoms: S_11  and  N_14
REMARK    4  A    between atoms: C_22  and  C_24
REMARK    5  A    between atoms: C_24  and  C_27
REMARK    6  A    between atoms: C_36  and  C_37
REMARK    7  A    between atoms: C_37  and  C_40
REMARK    8  A    between atoms: C_40  and  N_43
REMARK    9  A    between atoms: C_45  and  C_47
REMARK   10  A    between atoms: C_63  and  C_64
REMARK                            x       y       z     vdW  Elec       q    Type
REMARK                         _______ _______ _______ _____ _____    ______ ____
ROOT
ATOM      1  N   UNL     1       6.244  -5.451  25.456  0.00  0.00    +0.000 NA
ATOM      2  C   UNL     1       6.909  -5.641  24.242  0.00  0.00    +0.000 C 
ATOM      3  C   UNL     1       7.517  -4.304  23.774  0.00  0.00    +0.000 C 
ATOM      4  N   UNL     1       8.210  -3.656  24.891  0.00  0.00    +0.000 N 
ATOM      5  C   UNL     1       9.346  -2.919  24.604  0.00  0.00    +0.000 C 
ATOM      6  O   UNL     1      10.212  -3.831  24.127  0.00  0.00    +0.000 OA
ATOM      7  C   UNL     1       8.380  -4.454  26.115  0.00  0.00    +0.000 C 
ATOM      8  C   UNL     1       7.177  -5.267  26.505  0.00  0.00    +0.000 C 
ENDROOT
BRANCH   1   9
ATOM      9  S   UNL     1       4.999  -6.365  25.810  0.00  0.00    +0.000 S 
ATOM     10  O   UNL     1       4.565  -7.274  24.930  0.00  0.00    +0.000 OA
ATOM     11  O   UNL     1       5.265  -6.970  27.185  0.00  0.00    +0.000 OA
BRANCH   9  16
ATOM     12  C   UNL     1       4.863  -2.486  26.647  0.00  0.00    +0.000 A 
ATOM     13  C   UNL     1       4.055  -2.873  25.413  0.00  0.00    +0.000 A 
ATOM     14  C   UNL     1       3.512  -4.227  25.196  0.00  0.00    +0.000 A 
ATOM     15  C   UNL     1       3.551  -4.580  23.863  0.00  0.00    +0.000 C 
ATOM     16  C   UNL     1       3.650  -5.144  26.366  0.00  0.00    +0.000 A 
ATOM     17  C   UNL     1       4.018  -4.677  27.748  0.00  0.00    +0.000 A 
ATOM     18  C   UNL     1       4.461  -3.200  27.858  0.00  0.00    +0.000 A 
ATOM     19  C   UNL     1       3.811  -2.356  28.962  0.00  0.00    +0.000 C 
ENDBRANCH   9  16
ENDBRANCH   1   9
BRANCH   5  20
ATOM     20  C   UNL     1       9.578  -1.604  24.255  0.00  0.00    +0.000 C 
BRANCH  20  21
ATOM     21  C   UNL     1       9.706  -0.404  25.147  0.00  0.00    +0.000 A 
ATOM     22  C   UNL     1       8.327  -0.050  25.618  0.00  0.00    +0.000 A 
ATOM     23  C   UNL     1       7.574   1.172  25.510  0.00  0.00    +0.000 A 
ATOM     24  C   UNL     1       8.423   2.273  24.926  0.00  0.00    +0.000 A 
ATOM     25  C   UNL     1       9.850   2.125  24.314  0.00  0.00    +0.000 A 
ATOM     26  C   UNL     1      10.469   0.803  24.683  0.00  0.00    +0.000 A 
ATOM     27  C   UNL     1       9.748   2.556  22.848  0.00  0.00    +0.000 C 
ATOM     28  C   UNL     1       8.474   3.400  22.887  0.00  0.00    +0.000 C 
ATOM     29  N   UNL     1       7.754   3.161  24.062  0.00  0.00    +0.000 N 
ATOM     30  H   UNL     1       7.741   4.010  24.530  0.00  0.00    +0.000 HD
BRANCH  27  31
ATOM     31  C   UNL     1       9.616   1.439  21.899  0.00  0.00    +0.000 C 
BRANCH  31  32
ATOM     32  C   UNL     1       8.303   0.841  21.558  0.00  0.00    +0.000 C 
BRANCH  32  33
ATOM     33  N   UNL     1       7.976   0.628  20.162  0.00  0.00    +0.000 N 
ATOM     34  H   UNL     1       8.397  -0.166  19.768  0.00  0.00    +0.000 HD
ATOM     35  C   UNL     1       6.716   0.674  19.687  0.00  0.00    +0.000 C 
ATOM     36  O   UNL     1       5.961   1.573  20.124  0.00  0.00    +0.000 OA
ATOM     37  C   UNL     1       6.216  -0.147  18.557  0.00  0.00    +0.000 C 
ENDBRANCH  32  33
ENDBRANCH  31  32
ENDBRANCH  27  31
ENDBRANCH  20  21
ENDBRANCH   5  20
TORSDOF 7
ENDMDL
MODEL 3
REMARK VINA RESULT:      -8.5      2.011      2.824
REMARK  Name = 
REMARK  10 active torsions:
REMARK  status: ('A' for Active; 'I' for Inactive)
REMARK    1  A    between atoms: C_5  and  C_6
REMARK    2  A    between atoms: C_10  and  S_11
REMARK    3  A    between atoms: S_11  and  N_14
REMARK    4  A    between atoms: C_22  and  C_24
REMARK    5  A    between atoms: C_24  and  C_27
REMARK    6  A    between atoms: C_36  and  C_37
REMARK    7  A    between atoms: C_37  and  C_40
REMARK    8  A    between atoms: C_40  and  N_43
REMARK    9  A    between atoms: C_45  and  C_47
REMARK   10  A    between atoms: C_63  and  C_64
REMARK                            x       y       z     vdW  Elec       q    Type
REMARK                         _______ _______ _______ _____ _____    ______ ____
ROOT
ATOM      1  N   UNL     1       6.235  -5.403  25.383  0.00  0.00    +0.000 NA
ATOM      2  C   UNL     1       6.800  -5.365  24.107  0.00  0.00    +0.000 C 
ATOM      3  C   UNL     1       7.372  -3.959  23.838  0.00  0.00    +0.000 C 
ATOM      4  N   UNL     1       8.154  -3.512  24.995  0.00  0.00    +0.000 N 
ATOM      5  C   UNL     1       9.265  -2.723  24.756  0.00  0.00    +0.000 C 
ATOM      6  O   UNL     1      10.087  -3.524  24.056  0.00  0.00    +0.000 OA
ATOM      7  C   UNL     1       8.418  -4.515  26.039  0.00  0.00    +0.000 C 
ATOM      8  C   UNL     1       7.249  -5.399  26.371  0.00  0.00    +0.000 C 
ENDROOT
BRANCH   1   9
ATOM      9  S   UNL     1       5.020  -6.381  25.665  0.00  0.00    +0.000 S 
ATOM     10  O   UNL     1       4.617  -7.237  24.721  0.00  0.00    +0.000 OA
ATOM     11  O   UNL     1       5.303  -7.076  26.994  0.00  0.00    +0.000 OA
BRANCH   9  16
ATOM     12  C   UNL     1       4.687  -2.518  26.525  0.00  0.00    +0.000 A 
ATOM     13  C   UNL     1       3.835  -2.956  25.338  0.00  0.00    +0.000 A 
ATOM     14  C   UNL     1       3.368  -4.340  25.148  0.00  0.00    +0.000 A 
ATOM     15  C   UNL     1       3.352  -4.690  23.813  0.00  0.00    +0.000 C 
ATOM     16  C   UNL     1       3.630  -5.248  26.304  0.00  0.00    +0.000 A 
ATOM     17  C   UNL     1       4.048  -4.760  27.664  0.00  0.00    +0.000 A 
ATOM     18  C   UNL     1       4.402  -3.257  27.754  0.00  0.00    +0.000 A 
ATOM     19  C   UNL     1       3.765  -2.457  28.898  0.00  0.00    +0.000 C 
ENDBRANCH   9  16
ENDBRANCH   1   9
BRANCH   5  20
ATOM     20  C   UNL     1       9.471  -1.364  24.631  0.00  0.00    +0.000 C 
BRANCH  20  21
ATOM     21  C   UNL     1      10.260  -0.625  23.590  0.00  0.00    +0.000 A 
ATOM     22  C   UNL     1      10.833   0.595  24.249  0.00  0.00    +0.000 A 
ATOM     23  C   UNL     1      10.710   1.992  23.923  0.00  0.00    +0.000 A 
ATOM     24  C   UNL     1       9.972   2.176  22.622  0.00  0.00    +0.000 A 
ATOM     25  C   UNL     1       9.240   1.069  21.801  0.00  0.00    +0.000 A 
ATOM     26  C   UNL     1       9.642  -0.308  22.259  0.00  0.00    +0.000 A 
ATOM     27  C   UNL     1       7.763   1.471  21.739  0.00  0.00    +0.000 C 
ATOM     28  C   UNL     1       7.863   2.968  22.029  0.00  0.00    +0.000 C 
ATOM     29  N   UNL     1       9.115   3.291  22.563  0.00  0.00    +0.000 N 
ATOM     30  H   UNL     1       9.520   3.890  21.918  0.00  0.00    +0.000 HD
BRANCH  27  31
ATOM     31  C   UNL     1       6.913   0.794  22.731  0.00  0.00    +0.000 C 
BRANCH  31  32
ATOM     32  C   UNL     1       6.065   1.542  23.690  0.00  0.00    +0.000 C 
BRANCH  32  33
ATOM     33  N   UNL     1       6.036   1.117  25.075  0.00  0.00    +0.000 N 
ATOM     34  H   UNL     1       5.682   0.212  25.210  0.00  0.00    +0.000 HD
ATOM     35  C   UNL     1       7.088   1.248  25.906  0.00  0.00    +0.000 C 
ATOM     36  O   UNL     1       7.751   2.309  25.845  0.00  0.00    +0.000 OA
ATOM     37  C   UNL     1       7.410   0.306  27.007  0.00  0.00    +0.000 C 
ENDBRANCH  32  33
ENDBRANCH  31  32
ENDBRANCH  27  31
ENDBRANCH  20  21
ENDBRANCH   5  20
TORSDOF 7
ENDMDL
MODEL 4
REMARK VINA RESULT:      -8.4      3.280      8.015
REMARK  Name = 
REMARK  10 active torsions:
REMARK  status: ('A' for Active; 'I' for Inactive)
REMARK    1  A    between atoms: C_5  and  C_6
REMARK    2  A    between atoms: C_10  and  S_11
REMARK    3  A    between atoms: S_11  and  N_14
REMARK    4  A    between atoms: C_22  and  C_24
REMARK    5  A    between atoms: C_24  and  C_27
REMARK    6  A    between atoms: C_36  and  C_37
REMARK    7  A    between atoms: C_37  and  C_40
REMARK    8  A    between atoms: C_40  and  N_43
REMARK    9  A    between atoms: C_45  and  C_47
REMARK   10  A    between atoms: C_63  and  C_64
REMARK                            x       y       z     vdW  Elec       q    Type
REMARK                         _______ _______ _______ _____ _____    ______ ____
ROOT
ATOM      1  N   UNL     1       8.536   1.490  24.619  0.00  0.00    +0.000 NA
ATOM      2  C   UNL     1       7.621   1.733  25.645  0.00  0.00    +0.000 C 
ATOM      3  C   UNL     1       6.482   0.696  25.576  0.00  0.00    +0.000 C 
ATOM      4  N   UNL     1       7.044  -0.646  25.404  0.00  0.00    +0.000 N 
ATOM      5  C   UNL     1       6.381  -1.704  26.002  0.00  0.00    +0.000 C 
ATOM      6  O   UNL     1       6.476  -1.442  27.318  0.00  0.00    +0.000 OA
ATOM      7  C   UNL     1       8.504  -0.774  25.545  0.00  0.00    +0.000 C 
ATOM      8  C   UNL     1       9.295   0.328  24.901  0.00  0.00    +0.000 C 
ENDROOT
BRANCH   1   9
ATOM      9  S   UNL     1       9.355   2.701  24.006  0.00  0.00    +0.000 S 
ATOM     10  O   UNL     1       9.298   3.907  24.581  0.00  0.00    +0.000 OA
ATOM     11  O   UNL     1      10.790   2.219  23.812  0.00  0.00    +0.000 OA
BRANCH   9  16
ATOM     12  C   UNL     1       6.780   0.713  21.728  0.00  0.00    +0.000 A 
ATOM     13  C   UNL     1       6.458   2.197  21.862  0.00  0.00    +0.000 A 
ATOM     14  C   UNL     1       7.474   3.218  22.175  0.00  0.00    +0.000 A 
ATOM     15  C   UNL     1       6.961   4.213  22.981  0.00  0.00    +0.000 C 
ATOM     16  C   UNL     1       8.880   2.717  22.163  0.00  0.00    +0.000 A 
ATOM     17  C   UNL     1       9.282   1.385  21.591  0.00  0.00    +0.000 A 
ATOM     18  C   UNL     1       8.116   0.449  21.195  0.00  0.00    +0.000 A 
ATOM     19  C   UNL     1       8.180  -0.196  19.805  0.00  0.00    +0.000 C 
ENDBRANCH   9  16
ENDBRANCH   1   9
BRANCH   5  20
ATOM     20  C   UNL     1       5.360  -2.545  25.610  0.00  0.00    +0.000 C 
BRANCH  20  21
ATOM     21  C   UNL     1       4.793  -2.758  24.237  0.00  0.00    +0.000 A 
ATOM     22  C   UNL     1       3.974  -4.014  24.284  0.00  0.00    +0.000 A 
ATOM     23  C   UNL     1       4.054  -5.226  23.512  0.00  0.00    +0.000 A 
ATOM     24  C   UNL     1       5.073  -5.092  22.409  0.00  0.00    +0.000 A 
ATOM     25  C   UNL     1       6.077  -3.915  22.206  0.00  0.00    +0.000 A 
ATOM     26  C   UNL     1       5.693  -2.719  23.036  0.00  0.00    +0.000 A 
ATOM     27  C   UNL     1       7.483  -4.514  22.304  0.00  0.00    +0.000 C 
ATOM     28  C   UNL     1       7.188  -5.984  22.011  0.00  0.00    +0.000 C 
ATOM     29  N   UNL     1       5.820  -6.251  22.129  0.00  0.00    +0.000 N 
ATOM     30  H   UNL     1       5.537  -6.528  21.244  0.00  0.00    +0.000 HD
BRANCH  27  31
ATOM     31  C   UNL     1       8.116  -4.352  23.623  0.00  0.00    +0.000 C 
BRANCH  31  32
ATOM     32  C   UNL     1       8.122  -5.434  24.636  0.00  0.00    +0.000 C 
BRANCH  32  33
ATOM     33  N   UNL     1       7.091  -5.442  25.655  0.00  0.00    +0.000 N 
ATOM     34  H   UNL     1       6.469  -6.198  25.591  0.00  0.00    +0.000 HD
ATOM     35  C   UNL     1       7.350  -5.264  26.965  0.00  0.00    +0.000 C 
ATOM     36  O   UNL     1       8.193  -4.392  27.279  0.00  0.00    +0.000 OA
ATOM     37  C   UNL     1       6.583  -5.900  28.065  0.00  0.00    +0.000 C 
ENDBRANCH  32  33
ENDBRANCH  31  32
ENDBRANCH  27  31
ENDBRANCH  20  21
ENDBRANCH   5  20
TORSDOF 7
ENDMDL
MODEL 5
REMARK VINA RESULT:      -8.3      2.691      7.073
REMARK  Name = 
REMARK  10 active torsions:
REMARK  status: ('A' for Active; 'I' for Inactive)
REMARK    1  A    between atoms: C_5  and  C_6
REMARK    2  A    between atoms: C_10  and  S_11
REMARK    3  A    between atoms: S_11  and  N_14
REMARK    4  A    between atoms: C_22  and  C_24
REMARK    5  A    between atoms: C_24  and  C_27
REMARK    6  A    between atoms: C_36  and  C_37
REMARK    7  A    between atoms: C_37  and  C_40
REMARK    8  A    between atoms: C_40  and  N_43
REMARK    9  A    between atoms: C_45  and  C_47
REMARK   10  A    between atoms: C_63  and  C_64
REMARK                            x       y       z     vdW  Elec       q    Type
REMARK                         _______ _______ _______ _____ _____    ______ ____
ROOT
ATOM      1  N   UNL     1       8.687  -1.119  22.697  0.00  0.00    +0.000 NA
ATOM      2  C   UNL     1       9.813  -1.880  23.019  0.00  0.00    +0.000 C 
ATOM      3  C   UNL     1       9.496  -2.782  24.229  0.00  0.00    +0.000 C 
ATOM      4  N   UNL     1       8.203  -3.443  24.029  0.00  0.00    +0.000 N 
ATOM      5  C   UNL     1       8.050  -4.724  24.530  0.00  0.00    +0.000 C 
ATOM      6  O   UNL     1       8.936  -5.453  23.830  0.00  0.00    +0.000 OA
ATOM      7  C   UNL     1       7.591  -3.307  22.697  0.00  0.00    +0.000 C 
ATOM      8  C   UNL     1       7.698  -1.934  22.095  0.00  0.00    +0.000 C 
ENDROOT
BRANCH   1   9
ATOM      9  S   UNL     1       8.879   0.310  22.039  0.00  0.00    +0.000 S 
ATOM     10  O   UNL     1      10.079   0.680  21.580  0.00  0.00    +0.000 OA
ATOM     11  O   UNL     1       7.783   0.470  20.990  0.00  0.00    +0.000 OA
BRANCH   9  16
ATOM     12  C   UNL     1       7.255  -0.005  25.649  0.00  0.00    +0.000 A 
ATOM     13  C   UNL     1       8.581   0.748  25.639  0.00  0.00    +0.000 A 
ATOM     14  C   UNL     1       9.102   1.447  24.451  0.00  0.00    +0.000 A 
ATOM     15  C   UNL     1      10.476   1.352  24.370  0.00  0.00    +0.000 C 
ATOM     16  C   UNL     1       8.146   1.524  23.307  0.00  0.00    +0.000 A 
ATOM     17  C   UNL     1       6.680   1.206  23.428  0.00  0.00    +0.000 A 
ATOM     18  C   UNL     1       6.242   0.581  24.773  0.00  0.00    +0.000 A 
ATOM     19  C   UNL     1       5.018   1.197  25.463  0.00  0.00    +0.000 C 
ENDBRANCH   9  16
ENDBRANCH   1   9
BRANCH   5  20
ATOM     20  C   UNL     1       7.643  -5.240  25.744  0.00  0.00    +0.000 C 
BRANCH  20  21
ATOM     21  C   UNL     1       7.236  -4.507  26.987  0.00  0.00    +0.000 A 
ATOM     22  C   UNL     1       6.369  -5.435  27.787  0.00  0.00    +0.000 A 
ATOM     23  C   UNL     1       5.026  -5.284  28.282  0.00  0.00    +0.000 A 
ATOM     24  C   UNL     1       4.512  -3.891  28.022  0.00  0.00    +0.000 A 
ATOM     25  C   UNL     1       5.205  -2.788  27.163  0.00  0.00    +0.000 A 
ATOM     26  C   UNL     1       6.646  -3.130  26.892  0.00  0.00    +0.000 A 
ATOM     27  C   UNL     1       4.249  -2.461  26.012  0.00  0.00    +0.000 C 
ATOM     28  C   UNL     1       2.927  -2.967  26.587  0.00  0.00    +0.000 C 
ATOM     29  N   UNL     1       3.148  -3.800  27.689  0.00  0.00    +0.000 N 
ATOM     30  H   UNL     1       2.733  -3.346  28.438  0.00  0.00    +0.000 HD
BRANCH  27  31
ATOM     31  C   UNL     1       4.575  -3.143  24.749  0.00  0.00    +0.000 C 
BRANCH  31  32
ATOM     32  C   UNL     1       3.887  -4.384  24.319  0.00  0.00    +0.000 C 
BRANCH  32  33
ATOM     33  N   UNL     1       4.296  -5.014  23.079  0.00  0.00    +0.000 N 
ATOM     34  H   UNL     1       4.659  -4.391  22.413  0.00  0.00    +0.000 HD
ATOM     35  C   UNL     1       5.065  -6.119  23.035  0.00  0.00    +0.000 C 
ATOM     36  O   UNL     1       4.831  -7.026  23.867  0.00  0.00    +0.000 OA
ATOM     37  C   UNL     1       6.049  -6.414  21.964  0.00  0.00    +0.000 C 
ENDBRANCH  32  33
ENDBRANCH  31  32
ENDBRANCH  27  31
ENDBRANCH  20  21
ENDBRANCH   5  20
TORSDOF 7
ENDMDL
MODEL 6
REMARK VINA RESULT:      -8.2      3.358      7.670
REMARK  Name = 
REMARK  10 active torsions:
REMARK  status: ('A' for Active; 'I' for Inactive)
REMARK    1  A    between atoms: C_5  and  C_6
REMARK    2  A    between atoms: C_10  and  S_11
REMARK    3  A    between atoms: S_11  and  N_14
REMARK    4  A    between atoms: C_22  and  C_24
REMARK    5  A    between atoms: C_24  and  C_27
REMARK    6  A    between atoms: C_36  and  C_37
REMARK    7  A    between atoms: C_37  and  C_40
REMARK    8  A    between atoms: C_40  and  N_43
REMARK    9  A    between atoms: C_45  and  C_47
REMARK   10  A    between atoms: C_63  and  C_64
REMARK                            x       y       z     vdW  Elec       q    Type
REMARK                         _______ _______ _______ _____ _____    ______ ____
ROOT
ATOM      1  N   UNL     1       8.272   1.660  24.744  0.00  0.00    +0.000 NA
ATOM      2  C   UNL     1       7.201   2.121  25.513  0.00  0.00    +0.000 C 
ATOM      3  C   UNL     1       6.022   1.134  25.399  0.00  0.00    +0.000 C 
ATOM      4  N   UNL     1       6.506  -0.238  25.571  0.00  0.00    +0.000 N 
ATOM      5  C   UNL     1       5.667  -1.143  26.197  0.00  0.00    +0.000 C 
ATOM      6  O   UNL     1       5.533  -0.652  27.442  0.00  0.00    +0.000 OA
ATOM      7  C   UNL     1       7.900  -0.396  26.017  0.00  0.00    +0.000 C 
ATOM      8  C   UNL     1       8.877   0.540  25.363  0.00  0.00    +0.000 C 
ENDROOT
BRANCH   1   9
ATOM      9  S   UNL     1       9.278   2.707  24.108  0.00  0.00    +0.000 S 
ATOM     10  O   UNL     1       9.328   3.958  24.579  0.00  0.00    +0.000 OA
ATOM     11  O   UNL     1      10.652   2.045  24.074  0.00  0.00    +0.000 OA
BRANCH   9  16
ATOM     12  C   UNL     1       6.740   0.735  21.776  0.00  0.00    +0.000 A 
ATOM     13  C   UNL     1       6.521   2.244  21.778  0.00  0.00    +0.000 A 
ATOM     14  C   UNL     1       7.584   3.212  22.098  0.00  0.00    +0.000 A 
ATOM     15  C   UNL     1       7.089   4.300  22.788  0.00  0.00    +0.000 C 
ATOM     16  C   UNL     1       8.946   2.615  22.236  0.00  0.00    +0.000 A 
ATOM     17  C   UNL     1       9.288   1.218  21.794  0.00  0.00    +0.000 A 
ATOM     18  C   UNL     1       8.088   0.339  21.373  0.00  0.00    +0.000 A 
ATOM     19  C   UNL     1       8.208  -0.414  20.042  0.00  0.00    +0.000 C 
ENDBRANCH   9  16
ENDBRANCH   1   9
BRANCH   5  20
ATOM     20  C   UNL     1       4.678  -2.001  25.760  0.00  0.00    +0.000 C 
BRANCH  20  21
ATOM     21  C   UNL     1       4.543  -3.476  25.997  0.00  0.00    +0.000 A 
ATOM     22  C   UNL     1       4.949  -3.739  27.417  0.00  0.00    +0.000 A 
ATOM     23  C   UNL     1       5.957  -4.606  27.968  0.00  0.00    +0.000 A 
ATOM     24  C   UNL     1       6.585  -5.451  26.889  0.00  0.00    +0.000 A 
ATOM     25  C   UNL     1       6.367  -5.311  25.351  0.00  0.00    +0.000 A 
ATOM     26  C   UNL     1       5.168  -4.453  25.043  0.00  0.00    +0.000 A 
ATOM     27  C   UNL     1       7.734  -4.989  24.740  0.00  0.00    +0.000 C 
ATOM     28  C   UNL     1       8.665  -5.497  25.841  0.00  0.00    +0.000 C 
ATOM     29  N   UNL     1       7.963  -5.696  27.035  0.00  0.00    +0.000 N 
ATOM     30  H   UNL     1       8.035  -6.645  27.218  0.00  0.00    +0.000 HD
BRANCH  27  31
ATOM     31  C   UNL     1       7.954  -3.558  24.477  0.00  0.00    +0.000 C 
BRANCH  31  32
ATOM     32  C   UNL     1       7.595  -2.926  23.185  0.00  0.00    +0.000 C 
BRANCH  32  33
ATOM     33  N   UNL     1       7.478  -3.764  22.008  0.00  0.00    +0.000 N 
ATOM     34  H   UNL     1       8.166  -4.461  21.941  0.00  0.00    +0.000 HD
ATOM     35  C   UNL     1       6.318  -4.327  21.618  0.00  0.00    +0.000 C 
ATOM     36  O   UNL     1       5.278  -3.633  21.700  0.00  0.00    +0.000 OA
ATOM     37  C   UNL     1       6.211  -5.640  20.935  0.00  0.00    +0.000 C 
ENDBRANCH  32  33
ENDBRANCH  31  32
ENDBRANCH  27  31
ENDBRANCH  20  21
ENDBRANCH   5  20
TORSDOF 7
ENDMDL
MODEL 7
REMARK VINA RESULT:      -8.1      1.549      2.209
REMARK  Name = 
REMARK  10 active torsions:
REMARK  status: ('A' for Active; 'I' for Inactive)
REMARK    1  A    between atoms: C_5  and  C_6
REMARK    2  A    between atoms: C_10  and  S_11
REMARK    3  A    between atoms: S_11  and  N_14
REMARK    4  A    between atoms: C_22  and  C_24
REMARK    5  A    between atoms: C_24  and  C_27
REMARK    6  A    between atoms: C_36  and  C_37
REMARK    7  A    between atoms: C_37  and  C_40
REMARK    8  A    between atoms: C_40  and  N_43
REMARK    9  A    between atoms: C_45  and  C_47
REMARK   10  A    between atoms: C_63  and  C_64
REMARK                            x       y       z     vdW  Elec       q    Type
REMARK                         _______ _______ _______ _____ _____    ______ ____
ROOT
ATOM      1  N   UNL     1       5.900  -5.352  26.746  0.00  0.00    +0.000 NA
ATOM      2  C   UNL     1       6.110  -5.416  25.366  0.00  0.00    +0.000 C 
ATOM      3  C   UNL     1       6.740  -4.095  24.880  0.00  0.00    +0.000 C 
ATOM      4  N   UNL     1       7.842  -3.715  25.768  0.00  0.00    +0.000 N 
ATOM      5  C   UNL     1       8.929  -3.070  25.205  0.00  0.00    +0.000 C 
ATOM      6  O   UNL     1       9.447  -3.982  24.364  0.00  0.00    +0.000 OA
ATOM      7  C   UNL     1       8.262  -4.714  26.764  0.00  0.00    +0.000 C 
ATOM      8  C   UNL     1       7.133  -5.443  27.436  0.00  0.00    +0.000 C 
ENDROOT
BRANCH   1   9
ATOM      9  S   UNL     1       4.704  -6.171  27.387  0.00  0.00    +0.000 S 
ATOM     10  O   UNL     1       4.156  -7.191  26.718  0.00  0.00    +0.000 OA
ATOM     11  O   UNL     1       5.137  -6.568  28.795  0.00  0.00    +0.000 OA
BRANCH   9  16
ATOM     12  C   UNL     1       4.277  -2.270  26.777  0.00  0.00    +0.000 A 
ATOM     13  C   UNL     1       3.179  -3.112  26.136  0.00  0.00    +0.000 A 
ATOM     14  C   UNL     1       2.801  -4.451  26.623  0.00  0.00    +0.000 A 
ATOM     15  C   UNL     1       2.458  -5.290  25.584  0.00  0.00    +0.000 C 
ATOM     16  C   UNL     1       3.443  -4.846  27.912  0.00  0.00    +0.000 A 
ATOM     17  C   UNL     1       4.166  -3.878  28.810  0.00  0.00    +0.000 A 
ATOM     18  C   UNL     1       4.399  -2.468  28.221  0.00  0.00    +0.000 A 
ATOM     19  C   UNL     1       4.025  -1.271  29.106  0.00  0.00    +0.000 C 
ENDBRANCH   9  16
ENDBRANCH   1   9
BRANCH   5  20
ATOM     20  C   UNL     1       9.241  -1.749  24.955  0.00  0.00    +0.000 C 
BRANCH  20  21
ATOM     21  C   UNL     1      10.144  -1.181  23.899  0.00  0.00    +0.000 A 
ATOM     22  C   UNL     1      10.222   0.299  24.130  0.00  0.00    +0.000 A 
ATOM     23  C   UNL     1       9.922   1.410  23.265  0.00  0.00    +0.000 A 
ATOM     24  C   UNL     1       9.600   0.931  21.872  0.00  0.00    +0.000 A 
ATOM     25  C   UNL     1       9.400  -0.548  21.418  0.00  0.00    +0.000 A 
ATOM     26  C   UNL     1       9.915  -1.513  22.453  0.00  0.00    +0.000 A 
ATOM     27  C   UNL     1       7.966  -0.657  20.894  0.00  0.00    +0.000 C 
ATOM     28  C   UNL     1       7.662   0.808  20.586  0.00  0.00    +0.000 C 
ATOM     29  N   UNL     1       8.594   1.651  21.201  0.00  0.00    +0.000 N 
ATOM     30  H   UNL     1       9.047   2.104  20.474  0.00  0.00    +0.000 HD
BRANCH  27  31
ATOM     31  C   UNL     1       7.009  -1.205  21.868  0.00  0.00    +0.000 C 
BRANCH  31  32
ATOM     32  C   UNL     1       6.298  -2.487  21.646  0.00  0.00    +0.000 C 
BRANCH  32  33
ATOM     33  N   UNL     1       7.061  -3.719  21.661  0.00  0.00    +0.000 N 
ATOM     34  H   UNL     1       7.563  -3.870  22.490  0.00  0.00    +0.000 HD
ATOM     35  C   UNL     1       6.542  -4.909  21.300  0.00  0.00    +0.000 C 
ATOM     36  O   UNL     1       5.787  -4.937  20.300  0.00  0.00    +0.000 OA
ATOM     37  C   UNL     1       6.940  -6.211  21.891  0.00  0.00    +0.000 C 
ENDBRANCH  32  33
ENDBRANCH  31  32
ENDBRANCH  27  31
ENDBRANCH  20  21
ENDBRANCH   5  20
TORSDOF 7
ENDMDL
MODEL 8
REMARK VINA RESULT:      -8.1      2.799      7.968
REMARK  Name = 
REMARK  10 active torsions:
REMARK  status: ('A' for Active; 'I' for Inactive)
REMARK    1  A    between atoms: C_5  and  C_6
REMARK    2  A    between atoms: C_10  and  S_11
REMARK    3  A    between atoms: S_11  and  N_14
REMARK    4  A    between atoms: C_22  and  C_24
REMARK    5  A    between atoms: C_24  and  C_27
REMARK    6  A    between atoms: C_36  and  C_37
REMARK    7  A    between atoms: C_37  and  C_40
REMARK    8  A    between atoms: C_40  and  N_43
REMARK    9  A    between atoms: C_45  and  C_47
REMARK   10  A    between atoms: C_63  and  C_64
REMARK                            x       y       z     vdW  Elec       q    Type
REMARK                         _______ _______ _______ _____ _____    ______ ____
ROOT
ATOM      1  N   UNL     1       8.117  -0.686  22.221  0.00  0.00    +0.000 NA
ATOM      2  C   UNL     1       8.939  -1.812  22.299  0.00  0.00    +0.000 C 
ATOM      3  C   UNL     1       8.228  -2.914  23.109  0.00  0.00    +0.000 C 
ATOM      4  N   UNL     1       6.843  -3.053  22.648  0.00  0.00    +0.000 N 
ATOM      5  C   UNL     1       6.282  -4.318  22.668  0.00  0.00    +0.000 C 
ATOM      6  O   UNL     1       7.023  -5.016  21.790  0.00  0.00    +0.000 OA
ATOM      7  C   UNL     1       6.478  -2.320  21.425  0.00  0.00    +0.000 C 
ATOM      8  C   UNL     1       7.035  -0.926  21.340  0.00  0.00    +0.000 C 
ENDROOT
BRANCH   1   9
ATOM      9  S   UNL     1       8.776   0.751  22.106  0.00  0.00    +0.000 S 
ATOM     10  O   UNL     1      10.074   0.869  21.806  0.00  0.00    +0.000 OA
ATOM     11  O   UNL     1       7.890   1.578  21.180  0.00  0.00    +0.000 OA
BRANCH   9  16
ATOM     12  C   UNL     1       6.979  -0.314  25.483  0.00  0.00    +0.000 A 
ATOM     13  C   UNL     1       8.440   0.079  25.667  0.00  0.00    +0.000 A 
ATOM     14  C   UNL     1       9.155   0.980  24.745  0.00  0.00    +0.000 A 
ATOM     15  C   UNL     1      10.474   0.604  24.590  0.00  0.00    +0.000 C 
ATOM     16  C   UNL     1       8.289   1.633  23.720  0.00  0.00    +0.000 A 
ATOM     17  C   UNL     1       6.785   1.638  23.785  0.00  0.00    +0.000 A 
ATOM     18  C   UNL     1       6.162   0.735  24.875  0.00  0.00    +0.000 A 
ATOM     19  C   UNL     1       5.084   1.363  25.768  0.00  0.00    +0.000 C 
ENDBRANCH   9  16
ENDBRANCH   1   9
BRANCH   5  20
ATOM     20  C   UNL     1       5.589  -5.049  23.613  0.00  0.00    +0.000 C 
BRANCH  20  21
ATOM     21  C   UNL     1       4.166  -4.896  24.060  0.00  0.00    +0.000 A 
ATOM     22  C   UNL     1       4.012  -3.500  24.587  0.00  0.00    +0.000 A 
ATOM     23  C   UNL     1       3.572  -3.015  25.869  0.00  0.00    +0.000 A 
ATOM     24  C   UNL     1       3.084  -4.150  26.732  0.00  0.00    +0.000 A 
ATOM     25  C   UNL     1       3.203  -5.674  26.422  0.00  0.00    +0.000 A 
ATOM     26  C   UNL     1       3.549  -5.913  24.976  0.00  0.00    +0.000 A 
ATOM     27  C   UNL     1       4.052  -6.286  27.540  0.00  0.00    +0.000 C 
ATOM     28  C   UNL     1       3.889  -5.231  28.633  0.00  0.00    +0.000 C 
ATOM     29  N   UNL     1       3.380  -4.040  28.104  0.00  0.00    +0.000 N 
ATOM     30  H   UNL     1       2.524  -3.913  28.540  0.00  0.00    +0.000 HD
BRANCH  27  31
ATOM     31  C   UNL     1       5.469  -6.470  27.187  0.00  0.00    +0.000 C 
BRANCH  31  32
ATOM     32  C   UNL     1       6.507  -5.468  27.530  0.00  0.00    +0.000 C 
BRANCH  32  33
ATOM     33  N   UNL     1       7.878  -5.722  27.135  0.00  0.00    +0.000 N 
ATOM     34  H   UNL     1       8.026  -6.611  26.747  0.00  0.00    +0.000 HD
ATOM     35  C   UNL     1       8.606  -4.855  26.405  0.00  0.00    +0.000 C 
ATOM     36  O   UNL     1       8.504  -3.636  26.676  0.00  0.00    +0.000 OA
ATOM     37  C   UNL     1       9.648  -5.252  25.426  0.00  0.00    +0.000 C 
ENDBRANCH  32  33
ENDBRANCH  31  32
ENDBRANCH  27  31
ENDBRANCH  20  21
ENDBRANCH   5  20
TORSDOF 7
ENDMDL
MODEL 9
REMARK VINA RESULT:      -8.1      1.889      3.074
REMARK  Name = 
REMARK  10 active torsions:
REMARK  status: ('A' for Active; 'I' for Inactive)
REMARK    1  A    between atoms: C_5  and  C_6
REMARK    2  A    between atoms: C_10  and  S_11
REMARK    3  A    between atoms: S_11  and  N_14
REMARK    4  A    between atoms: C_22  and  C_24
REMARK    5  A    between atoms: C_24  and  C_27
REMARK    6  A    between atoms: C_36  and  C_37
REMARK    7  A    between atoms: C_37  and  C_40
REMARK    8  A    between atoms: C_40  and  N_43
REMARK    9  A    between atoms: C_45  and  C_47
REMARK   10  A    between atoms: C_63  and  C_64
REMARK                            x       y       z     vdW  Elec       q    Type
REMARK                         _______ _______ _______ _____ _____    ______ ____
ROOT
ATOM      1  N   UNL     1       5.196  -2.977  25.796  0.00  0.00    +0.000 NA
ATOM      2  C   UNL     1       6.162  -3.177  26.784  0.00  0.00    +0.000 C 
ATOM      3  C   UNL     1       7.566  -2.980  26.179  0.00  0.00    +0.000 C 
ATOM      4  N   UNL     1       7.591  -1.756  25.373  0.00  0.00    +0.000 N 
ATOM      5  C   UNL     1       8.766  -1.026  25.347  0.00  0.00    +0.000 C 
ATOM      6  O   UNL     1       8.924  -0.620  26.619  0.00  0.00    +0.000 OA
ATOM      7  C   UNL     1       6.412  -0.880  25.467  0.00  0.00    +0.000 C 
ATOM      8  C   UNL     1       5.094  -1.601  25.479  0.00  0.00    +0.000 C 
ENDROOT
BRANCH   1   9
ATOM      9  S   UNL     1       3.817  -3.753  25.890  0.00  0.00    +0.000 S 
ATOM     10  O   UNL     1       3.392  -4.223  27.068  0.00  0.00    +0.000 OA
ATOM     11  O   UNL     1       2.768  -2.888  25.199  0.00  0.00    +0.000 OA
BRANCH   9  16
ATOM     12  C   UNL     1       6.724  -5.321  23.685  0.00  0.00    +0.000 A 
ATOM     13  C   UNL     1       6.097  -6.310  24.662  0.00  0.00    +0.000 A 
ATOM     14  C   UNL     1       4.726  -6.169  25.184  0.00  0.00    +0.000 A 
ATOM     15  C   UNL     1       4.638  -6.587  26.495  0.00  0.00    +0.000 C 
ATOM     16  C   UNL     1       3.925  -5.087  24.537  0.00  0.00    +0.000 A 
ATOM     17  C   UNL     1       4.336  -4.396  23.266  0.00  0.00    +0.000 A 
ATOM     18  C   UNL     1       5.762  -4.720  22.762  0.00  0.00    +0.000 A 
ATOM     19  C   UNL     1       5.910  -5.098  21.282  0.00  0.00    +0.000 C 
ENDBRANCH   9  16
ENDBRANCH   1   9
BRANCH   5  20
ATOM     20  C   UNL     1       9.901  -1.056  24.562  0.00  0.00    +0.000 C 
BRANCH  20  21
ATOM     21  C   UNL     1      10.571   0.074  23.836  0.00  0.00    +0.000 A 
ATOM     22  C   UNL     1      10.341   1.319  24.640  0.00  0.00    +0.000 A 
ATOM     23  C   UNL     1       9.738   2.577  24.287  0.00  0.00    +0.000 A 
ATOM     24  C   UNL     1       9.419   2.622  22.814  0.00  0.00    +0.000 A 
ATOM     25  C   UNL     1       9.513   1.438  21.803  0.00  0.00    +0.000 A 
ATOM     26  C   UNL     1      10.307   0.293  22.374  0.00  0.00    +0.000 A 
ATOM     27  C   UNL     1       8.100   1.213  21.256  0.00  0.00    +0.000 C 
ATOM     28  C   UNL     1       7.460   2.567  21.556  0.00  0.00    +0.000 C 
ATOM     29  N   UNL     1       8.230   3.292  22.471  0.00  0.00    +0.000 N 
ATOM     30  H   UNL     1       8.514   4.086  21.993  0.00  0.00    +0.000 HD
BRANCH  27  31
ATOM     31  C   UNL     1       7.367   0.121  21.916  0.00  0.00    +0.000 C 
BRANCH  31  32
ATOM     32  C   UNL     1       6.853  -1.053  21.169  0.00  0.00    +0.000 C 
BRANCH  32  33
ATOM     33  N   UNL     1       5.953  -0.831  20.056  0.00  0.00    +0.000 N 
ATOM     34  H   UNL     1       5.074  -0.480  20.314  0.00  0.00    +0.000 HD
ATOM     35  C   UNL     1       6.316  -0.178  18.935  0.00  0.00    +0.000 C 
ATOM     36  O   UNL     1       7.454  -0.412  18.466  0.00  0.00    +0.000 OA
ATOM     37  C   UNL     1       5.403   0.661  18.120  0.00  0.00    +0.000 C 
ENDBRANCH  32  33
ENDBRANCH  31  32
ENDBRANCH  27  31
ENDBRANCH  20  21
ENDBRANCH   5  20
TORSDOF 7
ENDMDL
