MODEL 1
REMARK VINA RESULT:      -8.9      0.000      0.000
REMARK  Name = 
REMARK  6 active torsions:
REMARK  status: ('A' for Active; 'I' for Inactive)
REMARK    1  A    between atoms: C_5  and  S_6
REMARK    2  A    between atoms: S_6  and  N_9
REMARK    3  A    between atoms: C_23  and  S_24
REMARK    4  A    between atoms: S_24  and  N_27
REMARK    5  A    between atoms: C_50  and  C_51
REMARK    6  A    between atoms: C_57  and  C_58
REMARK                            x       y       z     vdW  Elec       q    Type
REMARK                         _______ _______ _______ _____ _____    ______ ____
ROOT
ATOM      1  N   UNL     1       8.528  -0.221  21.813  0.00  0.00    +0.000 NA
ATOM      2  C   UNL     1       7.435  -0.825  21.178  0.00  0.00    +0.000 C 
ATOM      3  C   UNL     1       7.099  -2.200  21.625  0.00  0.00    +0.000 C 
ATOM      4  N   UNL     1       7.551  -2.458  23.051  0.00  0.00    +0.000 N 
ATOM      5  C   UNL     1       7.036  -3.692  23.495  0.00  0.00    +0.000 C 
ATOM      6  O   UNL     1       7.668  -4.601  22.914  0.00  0.00    +0.000 OA
ATOM      7  N   UNL     1       6.436  -3.869  24.567  0.00  0.00    +0.000 N 
ATOM      8  C   UNL     1       6.487  -5.189  24.621  0.00  0.00    +0.000 A 
ATOM      9  C   UNL     1       5.745  -5.995  23.881  0.00  0.00    +0.000 A 
ATOM     10  C   UNL     1       4.536  -6.833  24.080  0.00  0.00    +0.000 A 
ATOM     11  C   UNL     1       4.429  -6.934  25.576  0.00  0.00    +0.000 A 
ATOM     12  C   UNL     1       5.128  -6.465  26.715  0.00  0.00    +0.000 A 
ATOM     13  C   UNL     1       6.175  -5.634  26.153  0.00  0.00    +0.000 A 
ATOM     14  C   UNL     1       7.524  -5.478  26.866  0.00  0.00    +0.000 C 
ATOM     15  C   UNL     1       7.873  -4.034  26.734  0.00  0.00    +0.000 C 
ATOM     16  C   UNL     1       6.841  -3.455  25.838  0.00  0.00    +0.000 C 
ATOM     17  C   UNL     1       8.927  -2.139  23.302  0.00  0.00    +0.000 C 
ATOM     18  C   UNL     1       9.468  -1.184  22.235  0.00  0.00    +0.000 C 
ENDROOT
BRANCH   1  19
ATOM     19  S   UNL     1       8.148   0.864  22.959  0.00  0.00    +0.000 S 
ATOM     20  O   UNL     1       8.811   0.520  24.194  0.00  0.00    +0.000 OA
ATOM     21  O   UNL     1       6.708   0.921  23.074  0.00  0.00    +0.000 OA
BRANCH  19  24
ATOM     22  C   UNL     1      10.927   3.280  23.562  0.00  0.00    +0.000 A 
ATOM     23  C   UNL     1      10.113   2.399  22.571  0.00  0.00    +0.000 A 
ATOM     24  C   UNL     1       8.688   2.439  22.413  0.00  0.00    +0.000 A 
ATOM     25  C   UNL     1       8.003   3.507  23.291  0.00  0.00    +0.000 A 
ATOM     26  C   UNL     1       6.794   4.039  22.482  0.00  0.00    +0.000 C 
ATOM     27  C   UNL     1       8.675   4.465  24.236  0.00  0.00    +0.000 A 
ATOM     28  C   UNL     1      10.221   4.493  23.942  0.00  0.00    +0.000 A 
ATOM     29  C   UNL     1      10.599   5.838  23.324  0.00  0.00    +0.000 C 
ENDBRANCH  19  24
ENDBRANCH   1  19
BRANCH  10  30
ATOM     30  S   UNL     1       3.150  -6.055  23.561  0.00  0.00    +0.000 S 
ATOM     31  O   UNL     1       3.601  -4.898  22.783  0.00  0.00    +0.000 OA
ATOM     32  O   UNL     1       2.399  -5.603  24.741  0.00  0.00    +0.000 OA
BRANCH  30  33
ATOM     33  N   UNL     1       2.097  -6.906  22.647  0.00  0.00    +0.000 NA
ATOM     34  H   UNL     1       2.490  -7.833  22.469  0.00  0.00    +0.000 HD
ATOM     35  H   UNL     1       1.285  -7.135  23.249  0.00  0.00    +0.000 HD
ENDBRANCH  30  33
ENDBRANCH  10  30
TORSDOF 4
ENDMDL
MODEL 2
REMARK VINA RESULT:      -8.3      1.448      2.001
REMARK  Name = 
REMARK  6 active torsions:
REMARK  status: ('A' for Active; 'I' for Inactive)
REMARK    1  A    between atoms: C_5  and  S_6
REMARK    2  A    between atoms: S_6  and  N_9
REMARK    3  A    between atoms: C_23  and  S_24
REMARK    4  A    between atoms: S_24  and  N_27
REMARK    5  A    between atoms: C_50  and  C_51
REMARK    6  A    between atoms: C_57  and  C_58
REMARK                            x       y       z     vdW  Elec       q    Type
REMARK                         _______ _______ _______ _____ _____    ______ ____
ROOT
ATOM      1  N   UNL     1       9.649  -0.190  21.856  0.00  0.00    +0.000 NA
ATOM      2  C   UNL     1       8.503  -0.660  21.202  0.00  0.00    +0.000 C 
ATOM      3  C   UNL     1       8.002  -1.988  21.635  0.00  0.00    +0.000 C 
ATOM      4  N   UNL     1       8.399  -2.303  23.067  0.00  0.00    +0.000 N 
ATOM      5  C   UNL     1       7.737  -3.471  23.496  0.00  0.00    +0.000 C 
ATOM      6  O   UNL     1       8.267  -4.444  22.919  0.00  0.00    +0.000 OA
ATOM      7  N   UNL     1       7.104  -3.580  24.558  0.00  0.00    +0.000 N 
ATOM      8  C   UNL     1       6.999  -4.897  24.605  0.00  0.00    +0.000 A 
ATOM      9  C   UNL     1       6.181  -5.608  23.849  0.00  0.00    +0.000 A 
ATOM     10  C   UNL     1       4.879  -6.301  24.025  0.00  0.00    +0.000 A 
ATOM     11  C   UNL     1       4.738  -6.395  25.519  0.00  0.00    +0.000 A 
ATOM     12  C   UNL     1       5.468  -6.014  26.670  0.00  0.00    +0.000 A 
ATOM     13  C   UNL     1       6.614  -5.309  26.129  0.00  0.00    +0.000 A 
ATOM     14  C   UNL     1       7.961  -5.315  26.863  0.00  0.00    +0.000 C 
ATOM     15  C   UNL     1       8.478  -3.921  26.745  0.00  0.00    +0.000 C 
ATOM     16  C   UNL     1       7.534  -3.221  25.837  0.00  0.00    +0.000 C 
ATOM     17  C   UNL     1       9.799  -2.148  23.340  0.00  0.00    +0.000 C 
ATOM     18  C   UNL     1      10.463  -1.258  22.287  0.00  0.00    +0.000 C 
ENDROOT
BRANCH   1  19
ATOM     19  S   UNL     1       9.380   0.927  23.003  0.00  0.00    +0.000 S 
ATOM     20  O   UNL     1      10.294   2.030  22.833  0.00  0.00    +0.000 OA
ATOM     21  O   UNL     1       9.482   0.288  24.297  0.00  0.00    +0.000 OA
BRANCH  19  24
ATOM     22  C   UNL     1       7.461   4.127  22.963  0.00  0.00    +0.000 A 
ATOM     23  C   UNL     1       7.859   2.798  22.258  0.00  0.00    +0.000 A 
ATOM     24  C   UNL     1       7.729   1.490  22.832  0.00  0.00    +0.000 A 
ATOM     25  C   UNL     1       7.082   1.496  24.233  0.00  0.00    +0.000 A 
ATOM     26  C   UNL     1       6.247   0.196  24.343  0.00  0.00    +0.000 C 
ATOM     27  C   UNL     1       6.591   2.697  24.995  0.00  0.00    +0.000 A 
ATOM     28  C   UNL     1       6.482   3.928  24.020  0.00  0.00    +0.000 A 
ATOM     29  C   UNL     1       5.011   4.269  23.791  0.00  0.00    +0.000 C 
ENDBRANCH  19  24
ENDBRANCH   1  19
BRANCH  10  30
ATOM     30  S   UNL     1       3.602  -5.364  23.490  0.00  0.00    +0.000 S 
ATOM     31  O   UNL     1       4.182  -4.357  22.599  0.00  0.00    +0.000 OA
ATOM     32  O   UNL     1       2.984  -4.708  24.652  0.00  0.00    +0.000 OA
BRANCH  30  33
ATOM     33  N   UNL     1       2.390  -6.115  22.692  0.00  0.00    +0.000 NA
ATOM     34  H   UNL     1       2.217  -7.020  23.134  0.00  0.00    +0.000 HD
ATOM     35  H   UNL     1       1.516  -5.603  22.911  0.00  0.00    +0.000 HD
ENDBRANCH  30  33
ENDBRANCH  10  30
TORSDOF 4
ENDMDL
MODEL 3
REMARK VINA RESULT:      -8.3      2.308      3.475
REMARK  Name = 
REMARK  6 active torsions:
REMARK  status: ('A' for Active; 'I' for Inactive)
REMARK    1  A    between atoms: C_5  and  S_6
REMARK    2  A    between atoms: S_6  and  N_9
REMARK    3  A    between atoms: C_23  and  S_24
REMARK    4  A    between atoms: S_24  and  N_27
REMARK    5  A    between atoms: C_50  and  C_51
REMARK    6  A    between atoms: C_57  and  C_58
REMARK                            x       y       z     vdW  Elec       q    Type
REMARK                         _______ _______ _______ _____ _____    ______ ____
ROOT
ATOM      1  N   UNL     1      10.027   2.385  22.790  0.00  0.00    +0.000 NA
ATOM      2  C   UNL     1       9.472   1.690  21.708  0.00  0.00    +0.000 C 
ATOM      3  C   UNL     1       9.289   0.229  21.895  0.00  0.00    +0.000 C 
ATOM      4  N   UNL     1       9.135  -0.140  23.360  0.00  0.00    +0.000 N 
ATOM      5  C   UNL     1       8.766  -1.495  23.471  0.00  0.00    +0.000 C 
ATOM      6  O   UNL     1       9.767  -2.187  23.192  0.00  0.00    +0.000 OA
ATOM      7  N   UNL     1       7.821  -1.921  24.154  0.00  0.00    +0.000 N 
ATOM      8  C   UNL     1       8.133  -3.206  24.165  0.00  0.00    +0.000 A 
ATOM      9  C   UNL     1       7.976  -4.021  23.136  0.00  0.00    +0.000 A 
ATOM     10  C   UNL     1       7.014  -5.080  22.737  0.00  0.00    +0.000 A 
ATOM     11  C   UNL     1       6.305  -5.404  24.021  0.00  0.00    +0.000 A 
ATOM     12  C   UNL     1       6.329  -4.979  25.372  0.00  0.00    +0.000 A 
ATOM     13  C   UNL     1       7.304  -3.906  25.375  0.00  0.00    +0.000 A 
ATOM     14  C   UNL     1       8.149  -3.613  26.620  0.00  0.00    +0.000 C 
ATOM     15  C   UNL     1       8.193  -2.126  26.724  0.00  0.00    +0.000 C 
ATOM     16  C   UNL     1       7.543  -1.621  25.489  0.00  0.00    +0.000 C 
ATOM     17  C   UNL     1      10.165   0.381  24.212  0.00  0.00    +0.000 C 
ATOM     18  C   UNL     1      10.883   1.555  23.543  0.00  0.00    +0.000 C 
ENDROOT
BRANCH   1  19
ATOM     19  S   UNL     1       8.965   3.216  23.694  0.00  0.00    +0.000 S 
ATOM     20  O   UNL     1       9.398   4.587  23.817  0.00  0.00    +0.000 OA
ATOM     21  O   UNL     1       8.820   2.541  24.965  0.00  0.00    +0.000 OA
BRANCH  19  24
ATOM     22  C   UNL     1       6.201   5.506  22.677  0.00  0.00    +0.000 A 
ATOM     23  C   UNL     1       7.269   4.445  22.286  0.00  0.00    +0.000 A 
ATOM     24  C   UNL     1       7.408   3.153  22.894  0.00  0.00    +0.000 A 
ATOM     25  C   UNL     1       6.335   2.860  23.964  0.00  0.00    +0.000 A 
ATOM     26  C   UNL     1       6.033   1.342  23.886  0.00  0.00    +0.000 C 
ATOM     27  C   UNL     1       5.210   3.766  24.386  0.00  0.00    +0.000 A 
ATOM     28  C   UNL     1       5.040   4.918  23.328  0.00  0.00    +0.000 A 
ATOM     29  C   UNL     1       3.736   4.717  22.558  0.00  0.00    +0.000 C 
ENDBRANCH  19  24
ENDBRANCH   1  19
BRANCH  10  30
ATOM     30  S   UNL     1       5.849  -4.496  21.689  0.00  0.00    +0.000 S 
ATOM     31  O   UNL     1       4.558  -4.766  22.327  0.00  0.00    +0.000 OA
ATOM     32  O   UNL     1       5.947  -5.238  20.423  0.00  0.00    +0.000 OA
BRANCH  30  33
ATOM     33  N   UNL     1       5.904  -2.912  21.296  0.00  0.00    +0.000 NA
ATOM     34  H   UNL     1       4.949  -2.577  21.149  0.00  0.00    +0.000 HD
ATOM     35  H   UNL     1       6.179  -2.394  22.150  0.00  0.00    +0.000 HD
ENDBRANCH  30  33
ENDBRANCH  10  30
TORSDOF 4
ENDMDL
MODEL 4
REMARK VINA RESULT:      -8.2      2.285      9.028
REMARK  Name = 
REMARK  6 active torsions:
REMARK  status: ('A' for Active; 'I' for Inactive)
REMARK    1  A    between atoms: C_5  and  S_6
REMARK    2  A    between atoms: S_6  and  N_9
REMARK    3  A    between atoms: C_23  and  S_24
REMARK    4  A    between atoms: S_24  and  N_27
REMARK    5  A    between atoms: C_50  and  C_51
REMARK    6  A    between atoms: C_57  and  C_58
REMARK                            x       y       z     vdW  Elec       q    Type
REMARK                         _______ _______ _______ _____ _____    ______ ____
ROOT
ATOM      1  N   UNL     1       7.352  -4.953  25.572  0.00  0.00    +0.000 NA
ATOM      2  C   UNL     1       7.386  -3.954  26.553  0.00  0.00    +0.000 C 
ATOM      3  C   UNL     1       8.001  -2.664  26.150  0.00  0.00    +0.000 C 
ATOM      4  N   UNL     1       7.904  -2.435  24.652  0.00  0.00    +0.000 N 
ATOM      5  C   UNL     1       8.314  -1.122  24.347  0.00  0.00    +0.000 C 
ATOM      6  O   UNL     1       9.556  -1.069  24.481  0.00  0.00    +0.000 OA
ATOM      7  N   UNL     1       7.678  -0.324  23.640  0.00  0.00    +0.000 N 
ATOM      8  C   UNL     1       8.631   0.567  23.420  0.00  0.00    +0.000 A 
ATOM      9  C   UNL     1       9.056   1.440  24.316  0.00  0.00    +0.000 A 
ATOM     10  C   UNL     1       8.871   2.890  24.581  0.00  0.00    +0.000 A 
ATOM     11  C   UNL     1       8.308   3.408  23.288  0.00  0.00    +0.000 A 
ATOM     12  C   UNL     1       7.945   2.895  22.018  0.00  0.00    +0.000 A 
ATOM     13  C   UNL     1       8.179   1.470  22.147  0.00  0.00    +0.000 A 
ATOM     14  C   UNL     1       8.585   0.626  20.932  0.00  0.00    +0.000 C 
ATOM     15  C   UNL     1       7.808  -0.641  21.057  0.00  0.00    +0.000 C 
ATOM     16  C   UNL     1       7.133  -0.565  22.377  0.00  0.00    +0.000 C 
ATOM     17  C   UNL     1       8.385  -3.526  23.855  0.00  0.00    +0.000 C 
ATOM     18  C   UNL     1       8.428  -4.820  24.671  0.00  0.00    +0.000 C 
ENDROOT
BRANCH   1  19
ATOM     19  S   UNL     1       5.915  -5.156  24.844  0.00  0.00    +0.000 S 
ATOM     20  O   UNL     1       6.115  -5.607  23.488  0.00  0.00    +0.000 OA
ATOM     21  O   UNL     1       5.176  -3.916  24.937  0.00  0.00    +0.000 OA
BRANCH  19  24
ATOM     22  C   UNL     1       2.886  -7.305  24.478  0.00  0.00    +0.000 A 
ATOM     23  C   UNL     1       4.415  -7.184  24.735  0.00  0.00    +0.000 A 
ATOM     24  C   UNL     1       5.018  -6.362  25.745  0.00  0.00    +0.000 A 
ATOM     25  C   UNL     1       3.991  -5.627  26.632  0.00  0.00    +0.000 A 
ATOM     26  C   UNL     1       4.607  -5.545  28.051  0.00  0.00    +0.000 C 
ATOM     27  C   UNL     1       2.492  -5.710  26.535  0.00  0.00    +0.000 A 
ATOM     28  C   UNL     1       2.092  -6.942  25.641  0.00  0.00    +0.000 A 
ATOM     29  C   UNL     1       1.455  -8.022  26.515  0.00  0.00    +0.000 C 
ENDBRANCH  19  24
ENDBRANCH   1  19
BRANCH  10  30
ATOM     30  S   UNL     1       7.703   3.162  25.746  0.00  0.00    +0.000 S 
ATOM     31  O   UNL     1       6.447   3.373  25.021  0.00  0.00    +0.000 OA
ATOM     32  O   UNL     1       8.061   4.379  26.490  0.00  0.00    +0.000 OA
BRANCH  30  33
ATOM     33  N   UNL     1       7.458   1.999  26.866  0.00  0.00    +0.000 NA
ATOM     34  H   UNL     1       6.670   1.418  26.569  0.00  0.00    +0.000 HD
ATOM     35  H   UNL     1       8.248   1.333  26.793  0.00  0.00    +0.000 HD
ENDBRANCH  30  33
ENDBRANCH  10  30
TORSDOF 4
ENDMDL
MODEL 5
REMARK VINA RESULT:      -8.1      1.507      1.968
REMARK  Name = 
REMARK  6 active torsions:
REMARK  status: ('A' for Active; 'I' for Inactive)
REMARK    1  A    between atoms: C_5  and  S_6
REMARK    2  A    between atoms: S_6  and  N_9
REMARK    3  A    between atoms: C_23  and  S_24
REMARK    4  A    between atoms: S_24  and  N_27
REMARK    5  A    between atoms: C_50  and  C_51
REMARK    6  A    between atoms: C_57  and  C_58
REMARK                            x       y       z     vdW  Elec       q    Type
REMARK                         _______ _______ _______ _____ _____    ______ ____
ROOT
ATOM      1  N   UNL     1       8.844  -1.358  23.128  0.00  0.00    +0.000 NA
ATOM      2  C   UNL     1       8.001  -1.989  22.204  0.00  0.00    +0.000 C 
ATOM      3  C   UNL     1       7.384  -3.264  22.648  0.00  0.00    +0.000 C 
ATOM      4  N   UNL     1       7.255  -3.333  24.160  0.00  0.00    +0.000 N 
ATOM      5  C   UNL     1       6.488  -4.460  24.518  0.00  0.00    +0.000 C 
ATOM      6  O   UNL     1       7.189  -5.476  24.326  0.00  0.00    +0.000 OA
ATOM      7  N   UNL     1       5.523  -4.444  25.299  0.00  0.00    +0.000 N 
ATOM      8  C   UNL     1       5.412  -5.743  25.521  0.00  0.00    +0.000 A 
ATOM      9  C   UNL     1       4.912  -6.608  24.656  0.00  0.00    +0.000 A 
ATOM     10  C   UNL     1       3.633  -7.342  24.482  0.00  0.00    +0.000 A 
ATOM     11  C   UNL     1       2.978  -7.217  25.829  0.00  0.00    +0.000 A 
ATOM     12  C   UNL     1       3.258  -6.623  27.083  0.00  0.00    +0.000 A 
ATOM     13  C   UNL     1       4.518  -5.941  26.864  0.00  0.00    +0.000 A 
ATOM     14  C   UNL     1       5.522  -5.754  28.008  0.00  0.00    +0.000 C 
ATOM     15  C   UNL     1       6.044  -4.366  27.850  0.00  0.00    +0.000 C 
ATOM     16  C   UNL     1       5.477  -3.871  26.571  0.00  0.00    +0.000 C 
ATOM     17  C   UNL     1       8.470  -3.055  24.870  0.00  0.00    +0.000 C 
ATOM     18  C   UNL     1       9.459  -2.297  23.981  0.00  0.00    +0.000 C 
ENDROOT
BRANCH   1  19
ATOM     19  S   UNL     1       8.187  -0.098  23.913  0.00  0.00    +0.000 S 
ATOM     20  O   UNL     1       8.799   0.039  25.212  0.00  0.00    +0.000 OA
ATOM     21  O   UNL     1       6.755  -0.290  23.967  0.00  0.00    +0.000 OA
BRANCH  19  24
ATOM     22  C   UNL     1       7.897   3.610  24.212  0.00  0.00    +0.000 A 
ATOM     23  C   UNL     1       8.775   2.357  23.934  0.00  0.00    +0.000 A 
ATOM     24  C   UNL     1       8.481   1.344  22.961  0.00  0.00    +0.000 A 
ATOM     25  C   UNL     1       7.210   1.637  22.137  0.00  0.00    +0.000 A 
ATOM     26  C   UNL     1       7.465   1.081  20.713  0.00  0.00    +0.000 C 
ATOM     27  C   UNL     1       6.313   2.839  22.256  0.00  0.00    +0.000 A 
ATOM     28  C   UNL     1       7.045   3.958  23.086  0.00  0.00    +0.000 A 
ATOM     29  C   UNL     1       7.411   5.120  22.164  0.00  0.00    +0.000 C 
ENDBRANCH  19  24
ENDBRANCH   1  19
BRANCH  10  30
ATOM     30  S   UNL     1       2.622  -6.576  23.393  0.00  0.00    +0.000 S 
ATOM     31  O   UNL     1       3.452  -5.595  22.689  0.00  0.00    +0.000 OA
ATOM     32  O   UNL     1       1.563  -5.887  24.145  0.00  0.00    +0.000 OA
BRANCH  30  33
ATOM     33  N   UNL     1       1.864  -7.499  22.279  0.00  0.00    +0.000 NA
ATOM     34  H   UNL     1       2.170  -7.207  21.348  0.00  0.00    +0.000 HD
ATOM     35  H   UNL     1       2.268  -8.451  22.344  0.00  0.00    +0.000 HD
ENDBRANCH  30  33
ENDBRANCH  10  30
TORSDOF 4
ENDMDL
MODEL 6
REMARK VINA RESULT:      -7.8      1.994      2.982
REMARK  Name = 
REMARK  6 active torsions:
REMARK  status: ('A' for Active; 'I' for Inactive)
REMARK    1  A    between atoms: C_5  and  S_6
REMARK    2  A    between atoms: S_6  and  N_9
REMARK    3  A    between atoms: C_23  and  S_24
REMARK    4  A    between atoms: S_24  and  N_27
REMARK    5  A    between atoms: C_50  and  C_51
REMARK    6  A    between atoms: C_57  and  C_58
REMARK                            x       y       z     vdW  Elec       q    Type
REMARK                         _______ _______ _______ _____ _____    ______ ____
ROOT
ATOM      1  N   UNL     1       8.572   2.191  21.783  0.00  0.00    +0.000 NA
ATOM      2  C   UNL     1       8.129   1.251  20.843  0.00  0.00    +0.000 C 
ATOM      3  C   UNL     1       8.217  -0.173  21.253  0.00  0.00    +0.000 C 
ATOM      4  N   UNL     1       8.161  -0.332  22.762  0.00  0.00    +0.000 N 
ATOM      5  C   UNL     1       8.045  -1.697  23.090  0.00  0.00    +0.000 C 
ATOM      6  O   UNL     1       9.149  -2.239  22.869  0.00  0.00    +0.000 OA
ATOM      7  N   UNL     1       7.207  -2.172  23.873  0.00  0.00    +0.000 N 
ATOM      8  C   UNL     1       7.746  -3.365  24.059  0.00  0.00    +0.000 A 
ATOM      9  C   UNL     1       7.717  -4.344  23.171  0.00  0.00    +0.000 A 
ATOM     10  C   UNL     1       6.955  -5.604  22.979  0.00  0.00    +0.000 A 
ATOM     11  C   UNL     1       6.342  -5.845  24.330  0.00  0.00    +0.000 A 
ATOM     12  C   UNL     1       6.316  -5.220  25.600  0.00  0.00    +0.000 A 
ATOM     13  C   UNL     1       7.081  -4.005  25.398  0.00  0.00    +0.000 A 
ATOM     14  C   UNL     1       7.885  -3.380  26.544  0.00  0.00    +0.000 C 
ATOM     15  C   UNL     1       7.662  -1.910  26.424  0.00  0.00    +0.000 C 
ATOM     16  C   UNL     1       6.906  -1.724  25.161  0.00  0.00    +0.000 C 
ATOM     17  C   UNL     1       9.097   0.486  23.478  0.00  0.00    +0.000 C 
ATOM     18  C   UNL     1       9.578   1.650  22.609  0.00  0.00    +0.000 C 
ENDROOT
BRANCH   1  19
ATOM     19  S   UNL     1       7.396   2.952  22.604  0.00  0.00    +0.000 S 
ATOM     20  O   UNL     1       6.244   2.091  22.717  0.00  0.00    +0.000 OA
ATOM     21  O   UNL     1       7.115   4.207  21.941  0.00  0.00    +0.000 OA
BRANCH  19  24
ATOM     22  C   UNL     1       6.128   3.834  26.001  0.00  0.00    +0.000 A 
ATOM     23  C   UNL     1       6.977   2.899  25.092  0.00  0.00    +0.000 A 
ATOM     24  C   UNL     1       8.011   3.335  24.199  0.00  0.00    +0.000 A 
ATOM     25  C   UNL     1       8.270   4.855  24.257  0.00  0.00    +0.000 A 
ATOM     26  C   UNL     1       9.788   5.057  24.017  0.00  0.00    +0.000 C 
ATOM     27  C   UNL     1       7.573   5.857  25.135  0.00  0.00    +0.000 A 
ATOM     28  C   UNL     1       6.788   5.101  26.271  0.00  0.00    +0.000 A 
ATOM     29  C   UNL     1       7.468   5.352  27.616  0.00  0.00    +0.000 C 
ENDBRANCH  19  24
ENDBRANCH   1  19
BRANCH  10  30
ATOM     30  S   UNL     1       5.683  -5.402  21.914  0.00  0.00    +0.000 S 
ATOM     31  O   UNL     1       6.123  -5.979  20.641  0.00  0.00    +0.000 OA
ATOM     32  O   UNL     1       5.434  -3.962  21.751  0.00  0.00    +0.000 OA
BRANCH  30  33
ATOM     33  N   UNL     1       4.246  -6.071  22.308  0.00  0.00    +0.000 NA
ATOM     34  H   UNL     1       3.855  -5.564  23.105  0.00  0.00    +0.000 HD
ATOM     35  H   UNL     1       3.577  -5.827  21.555  0.00  0.00    +0.000 HD
ENDBRANCH  30  33
ENDBRANCH  10  30
TORSDOF 4
ENDMDL
MODEL 7
REMARK VINA RESULT:      -7.7      1.829      2.533
REMARK  Name = 
REMARK  6 active torsions:
REMARK  status: ('A' for Active; 'I' for Inactive)
REMARK    1  A    between atoms: C_5  and  S_6
REMARK    2  A    between atoms: S_6  and  N_9
REMARK    3  A    between atoms: C_23  and  S_24
REMARK    4  A    between atoms: S_24  and  N_27
REMARK    5  A    between atoms: C_50  and  C_51
REMARK    6  A    between atoms: C_57  and  C_58
REMARK                            x       y       z     vdW  Elec       q    Type
REMARK                         _______ _______ _______ _____ _____    ______ ____
ROOT
ATOM      1  N   UNL     1      10.315   0.048  23.066  0.00  0.00    +0.000 NA
ATOM      2  C   UNL     1       9.982  -1.051  22.264  0.00  0.00    +0.000 C 
ATOM      3  C   UNL     1       9.219  -2.137  22.928  0.00  0.00    +0.000 C 
ATOM      4  N   UNL     1       8.413  -1.623  24.108  0.00  0.00    +0.000 N 
ATOM      5  C   UNL     1       7.558  -2.640  24.577  0.00  0.00    +0.000 C 
ATOM      6  O   UNL     1       8.261  -3.489  25.165  0.00  0.00    +0.000 OA
ATOM      7  N   UNL     1       6.344  -2.505  24.793  0.00  0.00    +0.000 N 
ATOM      8  C   UNL     1       6.133  -3.601  25.500  0.00  0.00    +0.000 A 
ATOM      9  C   UNL     1       6.076  -4.819  24.990  0.00  0.00    +0.000 A 
ATOM     10  C   UNL     1       5.012  -5.797  24.650  0.00  0.00    +0.000 A 
ATOM     11  C   UNL     1       3.815  -5.277  25.395  0.00  0.00    +0.000 A 
ATOM     12  C   UNL     1       3.495  -4.190  26.245  0.00  0.00    +0.000 A 
ATOM     13  C   UNL     1       4.722  -3.419  26.288  0.00  0.00    +0.000 A 
ATOM     14  C   UNL     1       5.095  -2.600  27.529  0.00  0.00    +0.000 C 
ATOM     15  C   UNL     1       5.643  -1.316  27.003  0.00  0.00    +0.000 C 
ATOM     16  C   UNL     1       5.726  -1.493  25.531  0.00  0.00    +0.000 C 
ATOM     17  C   UNL     1       9.172  -0.852  25.051  0.00  0.00    +0.000 C 
ATOM     18  C   UNL     1      10.464  -0.333  24.416  0.00  0.00    +0.000 C 
ENDROOT
BRANCH   1  19
ATOM     19  S   UNL     1       9.382   1.361  22.860  0.00  0.00    +0.000 S 
ATOM     20  O   UNL     1       7.991   0.980  22.893  0.00  0.00    +0.000 OA
ATOM     21  O   UNL     1       9.774   2.011  21.629  0.00  0.00    +0.000 OA
BRANCH  19  24
ATOM     22  C   UNL     1       7.582   3.711  25.132  0.00  0.00    +0.000 A 
ATOM     23  C   UNL     1       8.522   2.485  24.950  0.00  0.00    +0.000 A 
ATOM     24  C   UNL     1       9.724   2.477  24.167  0.00  0.00    +0.000 A 
ATOM     25  C   UNL     1      10.060   3.849  23.545  0.00  0.00    +0.000 A 
ATOM     26  C   UNL     1      11.605   3.962  23.524  0.00  0.00    +0.000 C 
ATOM     27  C   UNL     1       9.278   5.125  23.697  0.00  0.00    +0.000 A 
ATOM     28  C   UNL     1       8.258   4.975  24.887  0.00  0.00    +0.000 A 
ATOM     29  C   UNL     1       8.700   5.858  26.053  0.00  0.00    +0.000 C 
ENDBRANCH  19  24
ENDBRANCH   1  19
BRANCH  10  30
ATOM     30  S   UNL     1       4.616  -5.743  23.027  0.00  0.00    +0.000 S 
ATOM     31  O   UNL     1       5.776  -6.275  22.307  0.00  0.00    +0.000 OA
ATOM     32  O   UNL     1       4.393  -4.340  22.647  0.00  0.00    +0.000 OA
BRANCH  30  33
ATOM     33  N   UNL     1       3.291  -6.564  22.538  0.00  0.00    +0.000 NA
ATOM     34  H   UNL     1       2.872  -6.070  21.747  0.00  0.00    +0.000 HD
ATOM     35  H   UNL     1       3.621  -7.437  22.089  0.00  0.00    +0.000 HD
ENDBRANCH  30  33
ENDBRANCH  10  30
TORSDOF 4
ENDMDL
MODEL 8
REMARK VINA RESULT:      -7.5      1.672      2.136
REMARK  Name = 
REMARK  6 active torsions:
REMARK  status: ('A' for Active; 'I' for Inactive)
REMARK    1  A    between atoms: C_5  and  S_6
REMARK    2  A    between atoms: S_6  and  N_9
REMARK    3  A    between atoms: C_23  and  S_24
REMARK    4  A    between atoms: S_24  and  N_27
REMARK    5  A    between atoms: C_50  and  C_51
REMARK    6  A    between atoms: C_57  and  C_58
REMARK                            x       y       z     vdW  Elec       q    Type
REMARK                         _______ _______ _______ _____ _____    ______ ____
ROOT
ATOM      1  N   UNL     1       8.758  -1.779  23.152  0.00  0.00    +0.000 NA
ATOM      2  C   UNL     1       8.141  -2.762  22.367  0.00  0.00    +0.000 C 
ATOM      3  C   UNL     1       7.478  -3.865  23.107  0.00  0.00    +0.000 C 
ATOM      4  N   UNL     1       7.040  -3.433  24.496  0.00  0.00    +0.000 N 
ATOM      5  C   UNL     1       6.245  -4.440  25.076  0.00  0.00    +0.000 C 
ATOM      6  O   UNL     1       6.996  -5.389  25.385  0.00  0.00    +0.000 OA
ATOM      7  N   UNL     1       5.139  -4.255  25.609  0.00  0.00    +0.000 N 
ATOM      8  C   UNL     1       5.018  -5.407  26.247  0.00  0.00    +0.000 A 
ATOM      9  C   UNL     1       4.730  -6.556  25.662  0.00  0.00    +0.000 A 
ATOM     10  C   UNL     1       3.533  -7.425  25.522  0.00  0.00    +0.000 A 
ATOM     11  C   UNL     1       2.611  -6.916  26.594  0.00  0.00    +0.000 A 
ATOM     12  C   UNL     1       2.610  -5.910  27.590  0.00  0.00    +0.000 A 
ATOM     13  C   UNL     1       3.871  -5.225  27.384  0.00  0.00    +0.000 A 
ATOM     14  C   UNL     1       4.611  -4.568  28.555  0.00  0.00    +0.000 C 
ATOM     15  C   UNL     1       5.119  -3.271  28.021  0.00  0.00    +0.000 C 
ATOM     16  C   UNL     1       4.816  -3.293  26.568  0.00  0.00    +0.000 C 
ATOM     17  C   UNL     1       8.075  -2.816  25.275  0.00  0.00    +0.000 C 
ATOM     18  C   UNL     1       9.206  -2.311  24.378  0.00  0.00    +0.000 C 
ENDROOT
BRANCH   1  19
ATOM     19  S   UNL     1       7.921  -0.397  23.310  0.00  0.00    +0.000 S 
ATOM     20  O   UNL     1       7.696  -0.121  24.709  0.00  0.00    +0.000 OA
ATOM     21  O   UNL     1       6.702  -0.510  22.541  0.00  0.00    +0.000 OA
BRANCH  19  24
ATOM     22  C   UNL     1      11.070   1.504  23.942  0.00  0.00    +0.000 A 
ATOM     23  C   UNL     1      10.214   0.611  22.998  0.00  0.00    +0.000 A 
ATOM     24  C   UNL     1       8.867   0.893  22.594  0.00  0.00    +0.000 A 
ATOM     25  C   UNL     1       8.332   2.234  23.139  0.00  0.00    +0.000 A 
ATOM     26  C   UNL     1       7.388   2.810  22.053  0.00  0.00    +0.000 C 
ATOM     27  C   UNL     1       9.073   3.220  24.000  0.00  0.00    +0.000 A 
ATOM     28  C   UNL     1      10.611   2.884  23.974  0.00  0.00    +0.000 A 
ATOM     29  C   UNL     1      11.358   3.969  23.201  0.00  0.00    +0.000 C 
ENDBRANCH  19  24
ENDBRANCH   1  19
BRANCH  10  30
ATOM     30  S   UNL     1       2.750  -7.171  24.067  0.00  0.00    +0.000 S 
ATOM     31  O   UNL     1       1.660  -6.234  24.350  0.00  0.00    +0.000 OA
ATOM     32  O   UNL     1       2.199  -8.454  23.604  0.00  0.00    +0.000 OA
BRANCH  30  33
ATOM     33  N   UNL     1       3.627  -6.576  22.824  0.00  0.00    +0.000 NA
ATOM     34  H   UNL     1       2.987  -6.272  22.087  0.00  0.00    +0.000 HD
ATOM     35  H   UNL     1       4.029  -5.674  23.138  0.00  0.00    +0.000 HD
ENDBRANCH  30  33
ENDBRANCH  10  30
TORSDOF 4
ENDMDL
MODEL 9
REMARK VINA RESULT:      -7.5      2.478      3.563
REMARK  Name = 
REMARK  6 active torsions:
REMARK  status: ('A' for Active; 'I' for Inactive)
REMARK    1  A    between atoms: C_5  and  S_6
REMARK    2  A    between atoms: S_6  and  N_9
REMARK    3  A    between atoms: C_23  and  S_24
REMARK    4  A    between atoms: S_24  and  N_27
REMARK    5  A    between atoms: C_50  and  C_51
REMARK    6  A    between atoms: C_57  and  C_58
REMARK                            x       y       z     vdW  Elec       q    Type
REMARK                         _______ _______ _______ _____ _____    ______ ____
ROOT
ATOM      1  N   UNL     1       9.490  -2.801  24.052  0.00  0.00    +0.000 NA
ATOM      2  C   UNL     1       9.173  -4.154  23.873  0.00  0.00    +0.000 C 
ATOM      3  C   UNL     1       8.090  -4.690  24.734  0.00  0.00    +0.000 C 
ATOM      4  N   UNL     1       7.124  -3.602  25.171  0.00  0.00    +0.000 N 
ATOM      5  C   UNL     1       6.013  -4.185  25.811  0.00  0.00    +0.000 C 
ATOM      6  O   UNL     1       6.386  -4.589  26.933  0.00  0.00    +0.000 OA
ATOM      7  N   UNL     1       4.826  -3.933  25.547  0.00  0.00    +0.000 N 
ATOM      8  C   UNL     1       4.256  -4.464  26.615  0.00  0.00    +0.000 A 
ATOM      9  C   UNL     1       4.109  -5.762  26.816  0.00  0.00    +0.000 A 
ATOM     10  C   UNL     1       3.004  -6.749  26.724  0.00  0.00    +0.000 A 
ATOM     11  C   UNL     1       1.773  -5.886  26.691  0.00  0.00    +0.000 A 
ATOM     12  C   UNL     1       1.455  -4.507  26.717  0.00  0.00    +0.000 A 
ATOM     13  C   UNL     1       2.751  -3.858  26.726  0.00  0.00    +0.000 A 
ATOM     14  C   UNL     1       2.949  -2.501  27.412  0.00  0.00    +0.000 C 
ATOM     15  C   UNL     1       3.829  -1.721  26.495  0.00  0.00    +0.000 C 
ATOM     16  C   UNL     1       4.238  -2.672  25.431  0.00  0.00    +0.000 C 
ATOM     17  C   UNL     1       7.754  -2.455  25.761  0.00  0.00    +0.000 C 
ATOM     18  C   UNL     1       9.233  -2.388  25.375  0.00  0.00    +0.000 C 
ENDROOT
BRANCH   1  19
ATOM     19  S   UNL     1       8.886  -1.797  22.928  0.00  0.00    +0.000 S 
ATOM     20  O   UNL     1       7.598  -2.275  22.489  0.00  0.00    +0.000 OA
ATOM     21  O   UNL     1       9.852  -1.674  21.859  0.00  0.00    +0.000 OA
BRANCH  19  24
ATOM     22  C   UNL     1       7.303   1.504  22.207  0.00  0.00    +0.000 A 
ATOM     23  C   UNL     1       7.466   0.278  23.150  0.00  0.00    +0.000 A 
ATOM     24  C   UNL     1       8.716  -0.212  23.656  0.00  0.00    +0.000 A 
ATOM     25  C   UNL     1       9.928   0.642  23.227  0.00  0.00    +0.000 A 
ATOM     26  C   UNL     1      10.936   0.606  24.403  0.00  0.00    +0.000 C 
ATOM     27  C   UNL     1       9.902   1.884  22.379  0.00  0.00    +0.000 A 
ATOM     28  C   UNL     1       8.427   2.424  22.285  0.00  0.00    +0.000 A 
ATOM     29  C   UNL     1       8.310   3.729  23.070  0.00  0.00    +0.000 C 
ENDBRANCH  19  24
ENDBRANCH   1  19
BRANCH  10  30
ATOM     30  S   UNL     1       3.034  -7.581  25.274  0.00  0.00    +0.000 S 
ATOM     31  O   UNL     1       4.434  -7.591  24.841  0.00  0.00    +0.000 OA
ATOM     32  O   UNL     1       2.215  -6.847  24.298  0.00  0.00    +0.000 OA
BRANCH  30  33
ATOM     33  N   UNL     1       2.485  -9.119  25.267  0.00  0.00    +0.000 NA
ATOM     34  H   UNL     1       3.286  -9.753  25.212  0.00  0.00    +0.000 HD
ATOM     35  H   UNL     1       2.124  -9.319  26.217  0.00  0.00    +0.000 HD
ENDBRANCH  30  33
ENDBRANCH  10  30
TORSDOF 4
ENDMDL
