
 SMI23D  v 9.10   1.00000     0.00000

 34 35  0  0  0  0              1 V2000
   12.5394   12.2029   13.5270 H   0  0  0  0  0  0 
   13.3906   12.5214   14.2031 C   0  0  0  0  0  0 
   14.4193   12.9290   13.2008 N   0  0  0  0  0  0 
   14.9279   14.0562   13.6884 C   0  0  0  0  0  0 
   15.9979   14.1688   13.3905 H   0  0  0  0  0  0 
   14.4181   15.3117   14.4106 C   0  0  0  0  0  0 
   14.2985   16.3076   13.4191 N   0  0  0  0  0  0 
   15.1763   16.5238   13.1626 H   0  0  0  0  0  0 
   13.6263   15.7726   12.3558 C   0  0  0  0  0  0 
   14.3132   15.1278   11.5389 O   0  0  0  0  0  0 
   12.5209   16.6368   11.8036 C   0  0  0  0  0  0 
   12.2568   17.3845   12.6239 H   0  0  0  0  0  0 
   12.9600   17.2256   10.9681 H   0  0  0  0  0  0 
   11.3106   15.8854   11.4098 C   0  0  0  0  0  0 
   10.6133   15.8638   12.3594 H   0  0  0  0  0  0 
   10.4982   16.6281   10.3666 C   0  0  0  0  0  0 
   10.4581   17.7168   10.6770 H   0  0  0  0  0  0 
    9.4426   16.2423   10.3929 H   0  0  0  0  0  0 
   11.0535   16.5217    8.9859 C   0  0  0  0  0  0 
   11.7582   17.4033    8.7997 H   0  0  0  0  0  0 
   10.1749   16.7529    8.2639 H   0  0  0  0  0  0 
   11.6948   15.2458    8.5977 C   0  0  0  0  0  0 
   11.0853   14.7760    7.7278 H   0  0  0  0  0  0 
   12.6936   15.5004    8.0548 H   0  0  0  0  0  0 
   11.9656   14.2134    9.6170 C   0  0  0  0  0  0 
   11.5119   13.2060    9.2705 H   0  0  0  0  0  0 
   13.0841   13.9877    9.6710 H   0  0  0  0  0  0 
   11.4684   14.4533   11.0157 C   0  0  0  0  0  0 
   12.1172   13.8975   11.7465 H   0  0  0  0  0  0 
   10.4361   13.9576   11.1074 H   0  0  0  0  0  0 
   13.4067   14.9326   15.3760 C   0  0  0  0  0  0 
   13.1076   15.3256   16.3310 H   0  0  0  0  0  0 
   13.2343   13.3928   15.3169 C   0  0  0  0  0  0 
   13.5691   12.9382   16.3430 H   0  0  0  0  0  0 
  1  2  1  0
  2  3  1  0
  2 33  2  0
  3  4  2  0
  4  5  4  0
  4  6  1  0
  6  7  1  0
  6 31  2  0
  7  8  1  0
  7  9  1  0
  9 10  2  0
  9 11  1  0
 11 12  1  0
 11 13  1  0
 11 14  1  0
 14 15  1  0
 14 16  1  0
 14 28  1  0
 16 17  1  0
 16 18  1  0
 16 19  1  0
 19 20  1  0
 19 21  1  0
 19 22  1  0
 22 23  1  0
 22 24  1  0
 22 25  1  0
 25 26  1  0
 25 27  1  0
 25 28  1  0
 28 29  1  0
 28 30  1  0
 31 32  4  0
 31 33  1  0
 33 34  1  0
M  END
>  <name>


$$$$

 SMI23D  v 9.10   1.00000     0.00000

 30 31  0  0  0  0              1 V2000
    8.3248   12.7633   10.4117 H   0  0  0  0  0  0 
    8.1841   13.8754   10.6217 C   0  0  0  0  0  0 
    7.9675   13.9154   12.4437 S   0  0  0  0  0  0 
    9.3969   15.0647   12.6382 C   0  0  0  0  0  0 
   10.0121   14.7506   13.8171 C   0  0  0  0  0  0 
    9.8109   15.4098   14.8429 O   0  0  0  0  0  0 
   11.0216   13.8416   13.7404 N   0  0  0  0  0  0 
   10.6865   12.5037   13.2371 C   0  0  0  0  0  0 
   10.1619   11.9580   14.0512 H   0  0  0  0  0  0 
   10.0461   12.5802   12.3455 H   0  0  0  0  0  0 
   11.9582   11.7540   12.8575 C   0  0  0  0  0  0 
   12.0806   10.8768   13.5375 H   0  0  0  0  0  0 
   11.9131   11.4171   11.8131 H   0  0  0  0  0  0 
   13.1006   12.6390   13.0465 N   0  0  0  0  0  0 
   13.5848   13.3517   12.0076 C   0  0  0  0  0  0 
   14.7968   13.4802   11.8831 O   0  0  0  0  0  0 
   12.6379   14.3058   11.3348 C   0  0  0  0  0  0 
   11.7585   13.7586   10.9657 H   0  0  0  0  0  0 
   12.3538   15.1010   12.0427 H   0  0  0  0  0  0 
   13.4252   15.0727    9.9366 Cl  0  0  0  0  0  0 
   13.2860   13.1631   14.4003 C   0  0  0  0  0  0 
   14.1558   13.8440   14.4073 H   0  0  0  0  0  0 
   13.4780   12.2973   15.0776 H   0  0  0  0  0  0 
   12.0286   13.8815   14.8249 C   0  0  0  0  0  0 
   12.2495   14.9419   15.0511 H   0  0  0  0  0  0 
   11.5771   13.3850   15.7099 H   0  0  0  0  0  0 
    9.5566   15.7171   11.4476 C   0  0  0  0  0  0 
    9.7265   16.8351   11.2553 H   0  0  0  0  0  0 
    8.9966   14.9754   10.2837 C   0  0  0  0  0  0 
    8.8035   15.5974    9.3537 H   0  0  0  0  0  0 
  1  2  1  0
  2  3  1  0
  2 29  2  0
  3  4  1  0
  4  5  1  0
  4 27  2  0
  5  6  2  0
  5  7  1  0
  7  8  1  0
  7 24  1  0
  8  9  1  0
  8 10  1  0
  8 11  1  0
 11 12  1  0
 11 13  1  0
 11 14  1  0
 14 15  1  0
 14 21  1  0
 15 16  2  0
 15 17  1  0
 17 18  1  0
 17 19  1  0
 17 20  1  0
 21 22  1  0
 21 23  1  0
 21 24  1  0
 24 25  1  0
 24 26  1  0
 27 28  4  0
 27 29  1  0
 29 30  1  0
M  END
>  <name>


$$$$

 SMI23D  v 9.10   1.00000     0.00000

 36 37  0  0  0  0              1 V2000
    9.4096   11.1202   12.9820 H   0  0  0  0  0  0 
   10.3866   11.7293   12.9665 C   0  0  0  0  0  0 
   10.9647   11.3328   11.6063 C   0  0  0  0  0  0 
   11.0845   12.3094   11.2084 H   0  0  0  0  0  0 
   12.1711   10.5147   11.3091 C   0  0  0  0  0  0 
   11.7482    9.1523   10.8882 C   0  0  0  0  0  0 
   12.4663    8.3940   11.2203 H   0  0  0  0  0  0 
   11.7210    9.1475    9.7533 H   0  0  0  0  0  0 
   10.7225    8.9165   11.2455 H   0  0  0  0  0  0 
   12.8596   10.3723   12.6487 C   0  0  0  0  0  0 
   13.8224   10.7654   12.3235 H   0  0  0  0  0  0 
   12.6345   10.6162   13.9980 C   0  0  0  0  0  0 
   12.3120    9.6856   14.5585 H   0  0  0  0  0  0 
   11.3684   11.5693   14.0218 C   0  0  0  0  0  0 
   11.7804   12.7058   14.7345 C   0  0  0  0  0  0 
   11.8824   12.7892   15.9197 O   0  0  0  0  0  0 
   11.9241   13.8160   13.9288 N   0  0  0  0  0  0 
   10.7814   14.6946   13.8672 C   0  0  0  0  0  0 
   10.0784   14.3518   13.0785 H   0  0  0  0  0  0 
   10.2421   14.6422   14.8623 H   0  0  0  0  0  0 
   11.1715   16.1395   13.6312 C   0  0  0  0  0  0 
   11.3082   16.3224   12.5400 H   0  0  0  0  0  0 
   10.4260   16.8299   14.0450 H   0  0  0  0  0  0 
   12.4641   16.3606   14.2861 N   0  0  0  0  0  0 
   12.5568   17.0840   15.3982 C   0  0  0  0  0  0 
   11.9566   18.1520   15.5070 O   0  0  0  0  0  0 
   13.3648   16.5511   16.5463 C   0  0  0  0  0  0 
   12.8430   16.7971   17.4943 H   0  0  0  0  0  0 
   14.3678   17.0121   16.5316 H   0  0  0  0  0  0 
   13.5417   14.7943   16.4596 Cl  0  0  0  0  0  0 
   13.5890   15.6485   13.7228 C   0  0  0  0  0  0 
   13.8157   16.1074   12.7185 H   0  0  0  0  0  0 
   14.4810   15.7737   14.3671 H   0  0  0  0  0  0 
   13.2548   14.1843   13.5340 C   0  0  0  0  0  0 
   13.4080   13.9017   12.4561 H   0  0  0  0  0  0 
   14.0044   13.5801   14.1316 H   0  0  0  0  0  0 
  1  2  1  0
  2  3  1  0
  2 14  2  0
  3  4  4  0
  3  5  2  0
  5  6  1  0
  5 10  1  0
  6  7  1  0
  6  8  1  0
  6  9  1  0
 10 11  4  0
 10 12  2  0
 12 13  4  0
 12 14  1  0
 14 15  1  0
 15 16  2  0
 15 17  1  0
 17 18  1  0
 17 34  1  0
 18 19  1  0
 18 20  1  0
 18 21  1  0
 21 22  1  0
 21 23  1  0
 21 24  1  0
 24 25  1  0
 24 31  1  0
 25 26  2  0
 25 27  1  0
 27 28  1  0
 27 29  1  0
 27 30  1  0
 31 32  1  0
 31 33  1  0
 31 34  1  0
 34 35  1  0
 34 36  1  0
M  END
>  <name>


$$$$

 SMI23D  v 9.10   1.00000     0.00000

 30 31  0  0  0  0              1 V2000
    7.4419   13.3780   10.5319 H   0  0  0  0  0  0 
    8.3786   13.9265   10.8907 C   0  0  0  0  0  0 
    8.2258   13.9787   12.3458 O   0  0  0  0  0  0 
    9.2833   14.9533   12.5863 C   0  0  0  0  0  0 
    9.8854   14.5854   13.7736 C   0  0  0  0  0  0 
    9.5976   15.1615   14.8220 O   0  0  0  0  0  0 
   10.9518   13.7480   13.6666 N   0  0  0  0  0  0 
   10.7096   12.3692   13.2266 C   0  0  0  0  0  0 
   10.2484   11.8261   14.0867 H   0  0  0  0  0  0 
   10.0454   12.3371   12.3560 H   0  0  0  0  0  0 
   12.0231   11.6971   12.8480 C   0  0  0  0  0  0 
   12.1866   10.8148   13.5115 H   0  0  0  0  0  0 
   12.0091   11.3747   11.7951 H   0  0  0  0  0  0 
   13.1199   12.6349   13.0556 N   0  0  0  0  0  0 
   13.5651   13.3827   12.0207 C   0  0  0  0  0  0 
   14.7667   13.5364   11.8627 O   0  0  0  0  0  0 
   12.5706   14.3108   11.3818 C   0  0  0  0  0  0 
   11.6725   13.7457   11.0899 H   0  0  0  0  0  0 
   12.3239   15.1224   12.0865 H   0  0  0  0  0  0 
   13.2568   15.0437    9.9159 Cl  0  0  0  0  0  0 
   13.2308   13.1899   14.4085 C   0  0  0  0  0  0 
   14.0894   13.8845   14.4397 H   0  0  0  0  0  0 
   13.4238   12.3303   15.1020 H   0  0  0  0  0  0 
   11.9462   13.8709   14.7732 C   0  0  0  0  0  0 
   12.0938   14.9514   14.9554 H   0  0  0  0  0  0 
   11.4793   13.3928   15.6628 H   0  0  0  0  0  0 
    9.6151   15.7949   11.5437 C   0  0  0  0  0  0 
    9.5423   16.8985   11.3616 H   0  0  0  0  0  0 
    8.9332   15.1074   10.2862 C   0  0  0  0  0  0 
    9.7512   15.1027    9.5156 H   0  0  0  0  0  0 
  1  2  1  0
  2  3  1  0
  2 29  2  0
  3  4  1  0
  4  5  1  0
  4 27  2  0
  5  6  2  0
  5  7  1  0
  7  8  1  0
  7 24  1  0
  8  9  1  0
  8 10  1  0
  8 11  1  0
 11 12  1  0
 11 13  1  0
 11 14  1  0
 14 15  1  0
 14 21  1  0
 15 16  2  0
 15 17  1  0
 17 18  1  0
 17 19  1  0
 17 20  1  0
 21 22  1  0
 21 23  1  0
 21 24  1  0
 24 25  1  0
 24 26  1  0
 27 28  4  0
 27 29  1  0
 29 30  1  0
M  END
>  <name>


$$$$

 SMI23D  v 9.10   1.00000     0.00000

 26 26  0  0  0  0              1 V2000
    8.4218   10.1390   12.9636 H   0  0  0  0  0  0 
    7.9795   11.1073   12.7282 C   0  0  0  0  0  0 
    7.7549   11.1371   11.2416 C   0  0  0  0  0  0 
    8.2561   10.2456   10.8850 H   0  0  0  0  0  0 
    8.1914   12.1932   10.2742 C   0  0  0  0  0  0 
    6.9344   12.8608   10.0088 C   0  0  0  0  0  0 
    6.8828   13.3218    8.8261 O   0  0  0  0  0  0 
    5.8534   12.1349   10.3623 O   0  0  0  0  0  0 
    5.1467   12.5656   11.4813 C   0  0  0  0  0  0 
    5.2188   13.6658   11.5360 H   0  0  0  0  0  0 
    4.0904   12.2496   11.3650 H   0  0  0  0  0  0 
    5.5914   12.0961   12.3787 H   0  0  0  0  0  0 
    8.8896   13.2145   11.0766 C   0  0  0  0  0  0 
    8.3897   14.1444   10.7031 H   0  0  0  0  0  0 
    9.3335   13.4046   12.3813 C   0  0  0  0  0  0 
   10.6620   13.2450   12.4215 N   0  0  0  0  0  0 
   11.0376   13.7024   11.6469 H   0  0  0  0  0  0 
   11.2499   11.7476   12.4972 S   0  0  0  0  0  0 
   12.6785   11.8686   12.1891 O   0  0  0  0  0  0 
   10.5440   10.8893   11.6037 O   0  0  0  0  0  0 
   11.1431   11.0895   14.1391 C   0  0  0  0  0  0 
   10.6083   10.1146   14.1353 H   0  0  0  0  0  0 
   10.6061   11.8115   14.7956 H   0  0  0  0  0  0 
   12.1683   10.9177   14.5575 H   0  0  0  0  0  0 
    8.5900   12.3535   13.2427 C   0  0  0  0  0  0 
    7.8587   13.0085   13.8701 H   0  0  0  0  0  0 
  1  2  1  0
  2  3  1  0
  2 25  2  0
  3  4  4  0
  3  5  2  0
  5  6  1  0
  5 13  1  0
  6  7  2  0
  6  8  1  0
  8  9  1  0
  9 10  1  0
  9 11  1  0
  9 12  1  0
 13 14  4  0
 13 15  2  0
 15 16  1  0
 15 25  1  0
 16 17  1  0
 16 18  1  0
 18 19  2  0
 18 20  2  0
 18 21  1  0
 21 22  1  0
 21 23  1  0
 21 24  1  0
 25 26  1  0
M  END
>  <name>


$$$$

 SMI23D  v 9.10   1.00000     0.00000

 30 31  0  0  0  0              1 V2000
    9.3922   12.2232   12.1621 H   0  0  0  0  0  0 
   10.4846   12.4602   11.8096 C   0  0  0  0  0  0 
   11.3888   11.4223   11.4670 C   0  0  0  0  0  0 
   12.1119   10.8441   12.0773 H   0  0  0  0  0  0 
   12.5093   12.3254   10.2665 S   0  0  0  0  0  0 
   12.5171   11.6088    9.0842 O   0  0  0  0  0  0 
   13.6700   12.6568   10.9747 O   0  0  0  0  0  0 
   11.5444   13.8640   10.0449 C   0  0  0  0  0  0 
   10.9899   13.7024    9.0268 H   0  0  0  0  0  0 
   12.1594   14.7019    9.8829 H   0  0  0  0  0  0 
   10.5360   13.8257   11.1003 C   0  0  0  0  0  0 
    9.5155   14.0178   10.6567 H   0  0  0  0  0  0 
   10.7625   14.8025   12.2654 N   0  0  0  0  0  0 
   11.7811   15.6484   12.1233 C   0  0  0  0  0  0 
   11.6188   16.7792   11.6901 O   0  0  0  0  0  0 
   13.1612   15.1686   12.4887 C   0  0  0  0  0  0 
   13.1125   14.1673   12.9340 H   0  0  0  0  0  0 
   13.6167   15.8961   13.2041 H   0  0  0  0  0  0 
   14.2696   15.1000   11.0980 Cl  0  0  0  0  0  0 
    9.6595   15.1379   12.7660 C   0  0  0  0  0  0 
    9.8488   14.9785   14.2675 C   0  0  0  0  0  0 
   10.9220   15.0728   14.3420 H   0  0  0  0  0  0 
    9.3256   15.8872   15.2947 C   0  0  0  0  0  0 
    8.5033   15.3292   15.8779 H   0  0  0  0  0  0 
    8.5587   16.9530   14.5656 C   0  0  0  0  0  0 
    9.3442   17.7307   14.8271 H   0  0  0  0  0  0 
    8.1344   17.1990   13.2123 C   0  0  0  0  0  0 
    7.0187   17.3648   13.2389 H   0  0  0  0  0  0 
    8.5203   15.9550   12.4054 C   0  0  0  0  0  0 
    7.5833   15.3778   12.0152 H   0  0  0  0  0  0 
  1  2  1  0
  2  3  2  0
  2 11  1  0
  3  4  1  0
  3  5  1  0
  5  6  2  0
  5  7  2  0
  5  8  1  0
  8  9  1  0
  8 10  1  0
  8 11  1  0
 11 12  1  0
 11 13  1  0
 13 14  1  0
 13 20  1  0
 14 15  2  0
 14 16  1  0
 16 17  1  0
 16 18  1  0
 16 19  1  0
 20 21  1  0
 20 29  2  0
 21 22  4  0
 21 23  2  0
 23 24  4  0
 23 25  1  0
 25 26  4  0
 25 27  2  0
 27 28  4  0
 27 29  1  0
 29 30  1  0
M  END
>  <name>


$$$$

 SMI23D  v 9.10   1.00000     0.00000

 35 36  0  0  0  0              1 V2000
    7.7691    8.1551   12.3705 H   0  0  0  0  0  0 
    8.1540    9.1451   12.8477 C   0  0  0  0  0  0 
    9.0600    9.6960   11.7688 C   0  0  0  0  0  0 
    8.6799   10.7320   11.8570 H   0  0  0  0  0  0 
   10.5492    9.7580   11.7973 C   0  0  0  0  0  0 
   10.8452    9.1278   10.9417 H   0  0  0  0  0  0 
   11.1247    9.3270   13.1574 C   0  0  0  0  0  0 
   12.1335    8.3444   12.9490 N   0  0  0  0  0  0 
   11.6870    7.5572   12.6773 H   0  0  0  0  0  0 
   13.2271    8.6311   12.3908 C   0  0  0  0  0  0 
   14.2117    7.8876   12.6912 O   0  0  0  0  0  0 
   13.5282    9.8228   11.9166 N   0  0  0  0  0  0 
   14.4028   10.7045   12.7455 C   0  0  0  0  0  0 
   15.4469   10.4996   12.4717 H   0  0  0  0  0  0 
   14.2055   10.4971   13.7977 H   0  0  0  0  0  0 
   14.0416   12.1592   12.4021 C   0  0  0  0  0  0 
   14.1063   12.7577   13.3292 H   0  0  0  0  0  0 
   14.7711   12.5397   11.6524 H   0  0  0  0  0  0 
   12.6506   12.1681   11.8333 C   0  0  0  0  0  0 
   11.9555   11.6398   12.5218 H   0  0  0  0  0  0 
   12.1001   13.5747   11.7090 C   0  0  0  0  0  0 
   12.5635   14.4825   12.4017 O   0  0  0  0  0  0 
   10.7254   13.5547   11.5784 N   0  0  0  0  0  0 
   10.3526   13.5568   12.4529 H   0  0  0  0  0  0 
   10.4718   14.1932   10.9324 H   0  0  0  0  0  0 
   12.6524   11.5242   10.4548 C   0  0  0  0  0  0 
   11.6260   11.3499   10.0992 H   0  0  0  0  0  0 
   13.1698   12.2254    9.7422 H   0  0  0  0  0  0 
   13.4442   10.2259   10.5205 C   0  0  0  0  0  0 
   14.5016   10.4554   10.1718 H   0  0  0  0  0  0 
   13.0505    9.4447    9.8732 H   0  0  0  0  0  0 
   10.3027    9.2082   14.4030 C   0  0  0  0  0  0 
   10.5467    9.9795   15.2438 H   0  0  0  0  0  0 
    8.7856    9.1499   14.1704 C   0  0  0  0  0  0 
    8.1867    9.8630   14.8687 H   0  0  0  0  0  0 
  1  2  1  0
  2  3  1  0
  2 34  2  0
  3  4  4  0
  3  5  2  0
  5  6  4  0
  5  7  1  0
  7  8  1  0
  7 32  2  0
  8  9  1  0
  8 10  1  0
 10 11  2  0
 10 12  1  0
 12 13  1  0
 12 29  1  0
 13 14  1  0
 13 15  1  0
 13 16  1  0
 16 17  1  0
 16 18  1  0
 16 19  1  0
 19 20  1  0
 19 21  1  0
 19 26  1  0
 21 22  2  0
 21 23  1  0
 23 24  1  0
 23 25  1  0
 26 27  1  0
 26 28  1  0
 26 29  1  0
 29 30  1  0
 29 31  1  0
 32 33  4  0
 32 34  1  0
 34 35  1  0
M  END
>  <name>


$$$$

 SMI23D  v 9.10   1.00000     0.00000

 31 32  0  0  0  0              1 V2000
    9.4708    8.3946   11.9671 H   0  0  0  0  0  0 
    8.5893    8.9257   11.4383 C   0  0  0  0  0  0 
    9.2094   10.2965   11.1664 C   0  0  0  0  0  0 
    9.0790   10.3245   10.1196 H   0  0  0  0  0  0 
    8.8528   11.6132   11.7331 C   0  0  0  0  0  0 
    9.7348   11.8031   12.7321 N   0  0  0  0  0  0 
    9.4592   11.3746   13.5374 H   0  0  0  0  0  0 
   10.9794   11.3488   12.4035 C   0  0  0  0  0  0 
   11.1639   10.1142   12.6558 O   0  0  0  0  0  0 
   12.1334   12.2615   12.7142 C   0  0  0  0  0  0 
   12.0635   12.6179   13.7428 H   0  0  0  0  0  0 
   13.3556   11.5613   12.5737 O   0  0  0  0  0  0 
   13.7942   11.6416   11.2439 C   0  0  0  0  0  0 
   14.8889   11.6937   11.2442 H   0  0  0  0  0  0 
   13.4190   10.7681   10.6989 H   0  0  0  0  0  0 
   13.2038   12.9271   10.6480 C   0  0  0  0  0  0 
   12.6596   12.7074    9.7232 H   0  0  0  0  0  0 
   13.9885   13.6790   10.5046 H   0  0  0  0  0  0 
   12.2065   13.4187   11.7223 C   0  0  0  0  0  0 
   12.6626   14.2975   12.2270 H   0  0  0  0  0  0 
   11.2461   13.6483   11.2800 H   0  0  0  0  0  0 
    7.5850   11.3601   12.5032 C   0  0  0  0  0  0 
    6.9767   12.0975   11.9527 H   0  0  0  0  0  0 
    6.7795   10.2924   12.9201 C   0  0  0  0  0  0 
    6.9356   10.0644   14.0216 H   0  0  0  0  0  0 
    7.3228    9.0341   12.1540 C   0  0  0  0  0  0 
    6.1778    8.5422   11.4247 C   0  0  0  0  0  0 
    5.7248    9.0782   10.4632 O   0  0  0  0  0  0 
    5.5779    7.5985   12.1417 N   0  0  0  0  0  0 
    6.2097    7.1216   12.6819 H   0  0  0  0  0  0 
    4.7848    7.9372   12.5605 H   0  0  0  0  0  0 
  1  2  1  0
  2  3  1  0
  2 26  2  0
  3  4  4  0
  3  5  2  0
  5  6  1  0
  5 22  1  0
  6  7  1  0
  6  8  1  0
  8  9  2  0
  8 10  1  0
 10 11  1  0
 10 12  1  0
 10 19  1  0
 12 13  1  0
 13 14  1  0
 13 15  1  0
 13 16  1  0
 16 17  1  0
 16 18  1  0
 16 19  1  0
 19 20  1  0
 19 21  1  0
 22 23  4  0
 22 24  2  0
 24 25  4  0
 24 26  1  0
 26 27  1  0
 27 28  2  0
 27 29  1  0
 29 30  1  0
 29 31  1  0
M  END
>  <name>


$$$$

 SMI23D  v 9.10   1.00000     0.00000

 36 37  0  0  0  0              1 V2000
   13.3436    9.5171   12.8526 H   0  0  0  0  0  0 
   12.2191    9.3052   12.7430 C   0  0  0  0  0  0 
   11.8438    9.7177   11.3472 C   0  0  0  0  0  0 
   12.7574    9.9991   10.8964 H   0  0  0  0  0  0 
   10.8367   10.6874   10.9416 C   0  0  0  0  0  0 
    9.9109   10.1862   10.5271 H   0  0  0  0  0  0 
   10.3701   11.5179   12.1911 C   0  0  0  0  0  0 
   10.7631   12.8439   11.7888 C   0  0  0  0  0  0 
   10.3727   13.3558   10.7838 O   0  0  0  0  0  0 
   11.7529   13.3672   12.5413 N   0  0  0  0  0  0 
   12.5998   13.0846   12.1783 H   0  0  0  0  0  0 
   11.5965   14.8456   12.7409 C   0  0  0  0  0  0 
   11.6389   15.2927   11.7195 H   0  0  0  0  0  0 
   10.2479   15.0201   13.3526 C   0  0  0  0  0  0 
    9.4527   14.8155   12.5711 H   0  0  0  0  0  0 
   10.0936   14.3041   14.1893 H   0  0  0  0  0  0 
   10.0034   16.4408   13.8395 C   0  0  0  0  0  0 
    9.0784   16.4271   14.4683 H   0  0  0  0  0  0 
    9.8462   17.0918   12.9529 H   0  0  0  0  0  0 
   11.1155   16.9096   14.6180 N   0  0  0  0  0  0 
   10.8851   17.7156   15.6911 C   0  0  0  0  0  0 
   11.3925   17.4162   16.7679 O   0  0  0  0  0  0 
    9.7744   18.7125   15.6383 C   0  0  0  0  0  0 
    9.4212   18.8839   14.6217 H   0  0  0  0  0  0 
   10.1378   19.6742   16.0811 H   0  0  0  0  0  0 
    8.4042   18.1738   16.6380 Cl  0  0  0  0  0  0 
   12.4763   16.6985   14.1987 C   0  0  0  0  0  0 
   12.7554   17.5079   13.4720 H   0  0  0  0  0  0 
   13.1459   16.8133   15.0984 H   0  0  0  0  0  0 
   12.7256   15.3472   13.5738 C   0  0  0  0  0  0 
   13.0170   14.6061   14.3616 H   0  0  0  0  0  0 
   13.6454   15.4599   12.8977 H   0  0  0  0  0  0 
   10.3903   11.0385   13.5648 C   0  0  0  0  0  0 
    9.4128   10.9177   14.1129 H   0  0  0  0  0  0 
   11.3056    9.8011   13.7829 C   0  0  0  0  0  0 
   10.7105    8.9085   14.2507 H   0  0  0  0  0  0 
  1  2  1  0
  2  3  1  0
  2 35  2  0
  3  4  4  0
  3  5  2  0
  5  6  4  0
  5  7  1  0
  7  8  1  0
  7 33  2  0
  8  9  2  0
  8 10  1  0
 10 11  1  0
 10 12  1  0
 12 13  1  0
 12 14  1  0
 12 30  1  0
 14 15  1  0
 14 16  1  0
 14 17  1  0
 17 18  1  0
 17 19  1  0
 17 20  1  0
 20 21  1  0
 20 27  1  0
 21 22  2  0
 21 23  1  0
 23 24  1  0
 23 25  1  0
 23 26  1  0
 27 28  1  0
 27 29  1  0
 27 30  1  0
 30 31  1  0
 30 32  1  0
 33 34  4  0
 33 35  1  0
 35 36  1  0
M  END
>  <name>


$$$$

 SMI23D  v 9.10   1.00000     0.00000

 20 20  0  0  0  0              1 V2000
    6.6967    8.9793    4.6149 H   0  0  0  0  0  0 
    7.3696    8.0110    4.7730 C   0  0  0  0  0  0 
    7.1618    7.8959    6.2352 N   0  0  0  0  0  0 
    8.2275    8.2419    6.8250 C   0  0  0  0  0  0 
    8.2853    7.6671    7.9819 N   0  0  0  0  0  0 
    7.8539    6.7913    7.9782 H   0  0  0  0  0  0 
    8.0942    8.4872    9.1899 C   0  0  0  0  0  0 
    8.7133    9.4075    9.0545 H   0  0  0  0  0  0 
    8.4575    7.9118   10.0613 H   0  0  0  0  0  0 
    6.6444    8.8734    9.3685 C   0  0  0  0  0  0 
    6.3746    8.7957   10.4552 H   0  0  0  0  0  0 
    6.4939    9.9355    9.0505 H   0  0  0  0  0  0 
    5.9721    8.2175    8.7825 H   0  0  0  0  0  0 
    9.5828    8.4592    6.4534 C   0  0  0  0  0  0 
   10.1504    7.7448    7.0756 H   0  0  0  0  0  0 
   10.0537    8.4462    5.1364 C   0  0  0  0  0  0 
   10.4549    9.4387    4.7429 H   0  0  0  0  0  0 
    8.7320    8.1675    4.4002 C   0  0  0  0  0  0 
    9.1251    7.2117    3.5607 C   0  0  0  0  0  0 
    8.5018    6.2563    3.7691 N   0  0  0  0  0  0 
  1  2  1  0
  2  3  1  0
  2 18  2  0
  3  4  2  0
  4  5  1  0
  4 14  1  0
  5  6  1  0
  5  7  1  0
  7  8  1  0
  7  9  1  0
  7 10  1  0
 10 11  1  0
 10 12  1  0
 10 13  1  0
 14 15  4  0
 14 16  2  0
 16 17  4  0
 16 18  1  0
 18 19  1  0
 19 20  3  0
M  END
>  <name>


$$$$

 SMI23D  v 9.10   1.00000     0.00000

 31 32  0  0  0  0              1 V2000
    7.2757   15.0539   11.8779 H   0  0  0  0  0  0 
    8.3031   15.0463   12.3306 C   0  0  0  0  0  0 
    8.5157   13.2503   12.7371 S   0  0  0  0  0  0 
    9.7761   13.6315   13.9704 C   0  0  0  0  0  0 
   10.9119   12.6808   13.9614 C   0  0  0  0  0  0 
   11.7126   13.3638   14.5444 H   0  0  0  0  0  0 
   10.6200   11.9321   14.8107 H   0  0  0  0  0  0 
   11.5283   12.0542   12.9546 N   0  0  0  0  0  0 
   12.8345   11.6241   13.2492 C   0  0  0  0  0  0 
   13.5721   12.4599   13.1363 H   0  0  0  0  0  0 
   12.9355   11.2496   14.3189 H   0  0  0  0  0  0 
   13.3168   10.4270   12.4209 C   0  0  0  0  0  0 
   12.8162    9.5126   12.7936 H   0  0  0  0  0  0 
   14.4104   10.3392   12.5076 H   0  0  0  0  0  0 
   12.9571   10.6217   11.0146 N   0  0  0  0  0  0 
   13.8835   11.2420   10.2249 C   0  0  0  0  0  0 
   14.5727   12.1258   10.6948 O   0  0  0  0  0  0 
   14.2696   10.5076    8.9741 C   0  0  0  0  0  0 
   14.8929    9.6379    9.2407 H   0  0  0  0  0  0 
   13.3590   10.1976    8.4355 H   0  0  0  0  0  0 
   15.2172   11.5575    7.9014 Cl  0  0  0  0  0  0 
   11.5552   10.9707   10.7927 C   0  0  0  0  0  0 
   11.3643   11.1676    9.7432 H   0  0  0  0  0  0 
   10.9075   10.1968   11.2191 H   0  0  0  0  0  0 
   11.3465   12.2900   11.6084 C   0  0  0  0  0  0 
   10.3767   12.6852   11.2852 H   0  0  0  0  0  0 
   12.1337   13.0043   11.1903 H   0  0  0  0  0  0 
    9.5602   14.9094   14.4188 C   0  0  0  0  0  0 
    9.4082   15.3832   15.4548 H   0  0  0  0  0  0 
    8.7982   15.7690   13.4153 C   0  0  0  0  0  0 
    9.4096   16.7302   13.3072 H   0  0  0  0  0  0 
  1  2  1  0
  2  3  1  0
  2 30  2  0
  3  4  1  0
  4  5  1  0
  4 28  2  0
  5  6  1  0
  5  7  1  0
  5  8  1  0
  8  9  1  0
  8 25  1  0
  9 10  1  0
  9 11  1  0
  9 12  1  0
 12 13  1  0
 12 14  1  0
 12 15  1  0
 15 16  1  0
 15 22  1  0
 16 17  2  0
 16 18  1  0
 18 19  1  0
 18 20  1  0
 18 21  1  0
 22 23  1  0
 22 24  1  0
 22 25  1  0
 25 26  1  0
 25 27  1  0
 28 29  4  0
 28 30  1  0
 30 31  1  0
M  END
>  <name>


$$$$

 SMI23D  v 9.10   1.00000     0.00000

 30 31  0  0  0  0              1 V2000
   10.8965   15.8863   10.3939 H   0  0  0  0  0  0 
   10.2251   15.1110   10.8967 C   0  0  0  0  0  0 
   10.8097   14.9181   12.2874 C   0  0  0  0  0  0 
   11.6287   15.6398   12.3182 H   0  0  0  0  0  0 
   10.1229   15.0572   13.5772 C   0  0  0  0  0  0 
    9.9279   13.6676   14.1738 C   0  0  0  0  0  0 
    9.4687   13.9267   15.1890 H   0  0  0  0  0  0 
    9.1134   12.8594   13.5443 O   0  0  0  0  0  0 
    9.5485   12.0888   12.5153 C   0  0  0  0  0  0 
    8.7338   11.3770   12.2299 H   0  0  0  0  0  0 
    9.7892   12.7294   11.6364 H   0  0  0  0  0  0 
   10.7811   11.2810   12.8978 C   0  0  0  0  0  0 
   10.5336   10.5529   13.6949 H   0  0  0  0  0  0 
   11.2068   10.7730   12.0201 H   0  0  0  0  0  0 
   11.7634   12.2273   13.4260 N   0  0  0  0  0  0 
   13.0707   12.0403   13.1632 C   0  0  0  0  0  0 
   13.6225   11.0129   13.5511 O   0  0  0  0  0  0 
   13.6256   12.7862   11.9730 C   0  0  0  0  0  0 
   13.3692   13.8510   12.0657 H   0  0  0  0  0  0 
   13.2132   12.3470   11.0500 H   0  0  0  0  0  0 
   15.3933   12.6404   11.9121 Cl  0  0  0  0  0  0 
   11.3175   13.1307   14.4633 C   0  0  0  0  0  0 
   12.0444   13.9731   14.5465 H   0  0  0  0  0  0 
   11.3072   12.5753   15.4371 H   0  0  0  0  0  0 
    8.7594   15.5638   13.2648 C   0  0  0  0  0  0 
    8.9434   16.5665   13.7535 H   0  0  0  0  0  0 
    7.9370   15.7489   12.1141 C   0  0  0  0  0  0 
    7.0127   15.1271   12.2076 H   0  0  0  0  0  0 
    8.7838   15.3705   10.9080 C   0  0  0  0  0  0 
    8.1417   14.3172   10.3030 F   0  0  0  0  0  0 
  1  2  1  0
  2  3  1  0
  2 29  2  0
  3  4  4  0
  3  5  2  0
  5  6  1  0
  5 25  1  0
  6  7  1  0
  6  8  1  0
  6 22  1  0
  8  9  1  0
  9 10  1  0
  9 11  1  0
  9 12  1  0
 12 13  1  0
 12 14  1  0
 12 15  1  0
 15 16  1  0
 15 22  1  0
 16 17  2  0
 16 18  1  0
 18 19  1  0
 18 20  1  0
 18 21  1  0
 22 23  1  0
 22 24  1  0
 25 26  4  0
 25 27  2  0
 27 28  4  0
 27 29  1  0
 29 30  1  0
M  END
>  <name>


$$$$

 SMI23D  v 9.10   1.00000     0.00000

 37 38  0  0  0  0              1 V2000
   12.1734   10.0468   13.9577 H   0  0  0  0  0  0 
   11.8423   11.0822   14.3298 C   0  0  0  0  0  0 
   12.1440   11.9448   13.1062 C   0  0  0  0  0  0 
   11.1622   12.3797   12.9958 H   0  0  0  0  0  0 
   13.1508   13.0204   12.9564 C   0  0  0  0  0  0 
   14.2961   12.4596   12.1523 C   0  0  0  0  0  0 
   14.9022   13.2949   11.8110 H   0  0  0  0  0  0 
   14.8489   11.7241   12.7531 H   0  0  0  0  0  0 
   13.8362   11.9270   11.2751 H   0  0  0  0  0  0 
   13.6710   13.2734   14.3412 C   0  0  0  0  0  0 
   13.2449   14.3286   14.3518 H   0  0  0  0  0  0 
   13.5910   12.6987   15.6025 C   0  0  0  0  0  0 
   14.9809   12.1942   16.0050 C   0  0  0  0  0  0 
   15.3244   11.4180   15.3203 H   0  0  0  0  0  0 
   14.8479   11.6392   16.9899 H   0  0  0  0  0  0 
   15.7947   13.3268   16.1455 N   0  0  0  0  0  0 
   16.5794   13.7232   15.1155 C   0  0  0  0  0  0 
   17.6094   13.1690   15.2126 H   0  0  0  0  0  0 
   16.2102   13.3190   14.0900 H   0  0  0  0  0  0 
   16.8810   15.1769   14.8759 C   0  0  0  0  0  0 
   17.9838   15.3384   14.7462 H   0  0  0  0  0  0 
   16.3917   15.5396   13.9166 H   0  0  0  0  0  0 
   16.4093   16.0370   15.9321 N   0  0  0  0  0  0 
   17.2474   16.9753   16.4673 C   0  0  0  0  0  0 
   18.1547   16.5774   17.1900 O   0  0  0  0  0  0 
   16.5743   18.2993   16.7556 C   0  0  0  0  0  0 
   17.2739   19.1116   16.5180 H   0  0  0  0  0  0 
   15.6520   18.3650   16.1570 H   0  0  0  0  0  0 
   16.1387   18.4108   18.4700 Cl  0  0  0  0  0  0 
   15.2298   15.6746   16.6640 C   0  0  0  0  0  0 
   15.1324   16.3043   17.5812 H   0  0  0  0  0  0 
   14.3244   15.7790   16.0502 H   0  0  0  0  0  0 
   15.3891   14.2092   17.1219 C   0  0  0  0  0  0 
   16.1464   14.2282   17.9740 H   0  0  0  0  0  0 
   14.4006   13.9659   17.6019 H   0  0  0  0  0  0 
   12.5182   11.5923   15.5488 C   0  0  0  0  0  0 
   11.7161   11.9891   16.3113 H   0  0  0  0  0  0 
  1  2  1  0
  2  3  1  0
  2 36  2  0
  3  4  4  0
  3  5  2  0
  5  6  1  0
  5 10  1  0
  6  7  1  0
  6  8  1  0
  6  9  1  0
 10 11  4  0
 10 12  2  0
 12 13  1  0
 12 36  1  0
 13 14  1  0
 13 15  1  0
 13 16  1  0
 16 17  1  0
 16 33  1  0
 17 18  1  0
 17 19  1  0
 17 20  1  0
 20 21  1  0
 20 22  1  0
 20 23  1  0
 23 24  1  0
 23 30  1  0
 24 25  2  0
 24 26  1  0
 26 27  1  0
 26 28  1  0
 26 29  1  0
 30 31  1  0
 30 32  1  0
 30 33  1  0
 33 34  1  0
 33 35  1  0
 36 37  1  0
M  END
>  <name>


$$$$

 SMI23D  v 9.10   1.00000     0.00000

 29 30  0  0  0  0              1 V2000
   14.0265   11.3268   14.0002 H   0  0  0  0  0  0 
   15.0080   11.1577   13.4963 C   0  0  0  0  0  0 
   14.8671    9.8203   12.5247 C   0  0  0  0  0  0 
   13.5766    9.4901   12.6305 F   0  0  0  0  0  0 
   15.3114   10.1419   11.1385 C   0  0  0  0  0  0 
   16.1869    9.4209   10.7841 H   0  0  0  0  0  0 
   15.5003   11.4245   10.3679 C   0  0  0  0  0  0 
   14.4687   11.8059    9.2999 C   0  0  0  0  0  0 
   13.5673   10.8238    8.7849 C   0  0  0  0  0  0 
   12.9925   11.2506    7.9166 H   0  0  0  0  0  0 
   14.2098    9.9852    8.3135 H   0  0  0  0  0  0 
   12.6120   10.1309    9.7273 C   0  0  0  0  0  0 
   12.3293   10.8091   10.5634 H   0  0  0  0  0  0 
   13.1854    9.2476   10.1909 H   0  0  0  0  0  0 
   11.4593    9.5773    9.1126 N   0  0  0  0  0  0 
   11.0309    8.7836    9.4473 H   0  0  0  0  0  0 
   10.8630    9.9603    7.9721 C   0  0  0  0  0  0 
   11.1969    9.3794    6.9219 O   0  0  0  0  0  0 
    9.3894   10.3321    8.1139 C   0  0  0  0  0  0 
    9.1720   10.4626    9.1843 H   0  0  0  0  0  0 
    9.2211   11.2642    7.5506 H   0  0  0  0  0  0 
    8.7961    9.5006    7.6870 H   0  0  0  0  0  0 
   13.9533   13.0964    9.8350 C   0  0  0  0  0  0 
   12.9101   13.3553    9.8495 H   0  0  0  0  0  0 
   14.7931   13.6247   10.8810 N   0  0  0  0  0  0 
   14.2094   13.8331   11.5960 H   0  0  0  0  0  0 
   15.7061   12.6817   11.3204 C   0  0  0  0  0  0 
   15.6482   12.2740   12.7706 C   0  0  0  0  0  0 
   16.6832   12.6097   13.2153 H   0  0  0  0  0  0 
  1  2  1  0
  2  3  1  0
  2 28  2  0
  3  4  1  0
  3  5  2  0
  5  6  4  0
  5  7  1  0
  7  8  1  0
  7 27  2  0
  8  9  1  0
  8 23  1  0
  9 10  1  0
  9 11  1  0
  9 12  1  0
 12 13  1  0
 12 14  1  0
 12 15  1  0
 15 16  1  0
 15 17  1  0
 17 18  2  0
 17 19  1  0
 19 20  1  0
 19 21  1  0
 19 22  1  0
 23 24  4  0
 23 25  1  0
 25 26  4  0
 25 27  1  0
 27 28  1  0
 28 29  1  0
M  END
>  <name>


$$$$

 SMI23D  v 9.10   1.00000     0.00000

 35 36  0  0  0  0              1 V2000
   10.9233    9.7967    7.6571 H   0  0  0  0  0  0 
   10.8194    9.5170    8.7820 C   0  0  0  0  0  0 
   11.7671   10.3878    9.5425 C   0  0  0  0  0  0 
   12.1985   11.0129    8.7606 H   0  0  0  0  0  0 
   12.9470    9.9473   10.3226 C   0  0  0  0  0  0 
   12.5961   10.1892   11.6213 N   0  0  0  0  0  0 
   13.1744   11.5736   11.9532 C   0  0  0  0  0  0 
   12.7577   12.2513   11.1816 H   0  0  0  0  0  0 
   14.2554   11.4657   11.8602 H   0  0  0  0  0  0 
   12.7433   12.0093   13.3198 C   0  0  0  0  0  0 
   11.8401   12.6569   13.2741 H   0  0  0  0  0  0 
   13.5549   12.5410   13.8489 H   0  0  0  0  0  0 
   12.3864   10.8056   14.1034 N   0  0  0  0  0  0 
   13.4622   10.0316   14.4770 C   0  0  0  0  0  0 
   14.1345    9.5505   13.5683 O   0  0  0  0  0  0 
   14.1190   10.4198   15.7748 C   0  0  0  0  0  0 
   14.6827    9.5490   16.1595 H   0  0  0  0  0  0 
   14.7947   11.2742   15.6031 H   0  0  0  0  0  0 
   12.9158   10.8842   16.9842 Cl  0  0  0  0  0  0 
   11.2004   10.0957   13.6153 C   0  0  0  0  0  0 
   10.3086   10.6828   13.9505 H   0  0  0  0  0  0 
   11.1762    9.0904   14.0522 H   0  0  0  0  0  0 
   11.2267   10.0479   12.0984 C   0  0  0  0  0  0 
   10.6318   10.9128   11.7042 H   0  0  0  0  0  0 
   10.8004    9.1033   11.7305 H   0  0  0  0  0  0 
   12.9789    8.4813   10.2426 C   0  0  0  0  0  0 
   13.9351    8.4931    9.5990 H   0  0  0  0  0  0 
   12.1458    7.4340    9.7618 C   0  0  0  0  0  0 
   11.9511    6.6926   10.5516 H   0  0  0  0  0  0 
   10.8809    8.0938    9.1860 C   0  0  0  0  0  0 
    9.6449    7.6192    9.7605 O   0  0  0  0  0  0 
    8.9861    6.7384    8.8854 C   0  0  0  0  0  0 
    8.0192    6.4931    9.3393 H   0  0  0  0  0  0 
    8.8642    7.2602    7.9199 H   0  0  0  0  0  0 
    9.6260    5.8457    8.7732 H   0  0  0  0  0  0 
  1  2  1  0
  2  3  1  0
  2 30  2  0
  3  4  4  0
  3  5  2  0
  5  6  1  0
  5 26  1  0
  6  7  1  0
  6 23  1  0
  7  8  1  0
  7  9  1  0
  7 10  1  0
 10 11  1  0
 10 12  1  0
 10 13  1  0
 13 14  1  0
 13 20  1  0
 14 15  2  0
 14 16  1  0
 16 17  1  0
 16 18  1  0
 16 19  1  0
 20 21  1  0
 20 22  1  0
 20 23  1  0
 23 24  1  0
 23 25  1  0
 26 27  4  0
 26 28  2  0
 28 29  4  0
 28 30  1  0
 30 31  1  0
 31 32  1  0
 32 33  1  0
 32 34  1  0
 32 35  1  0
M  END
>  <name>


$$$$

 SMI23D  v 9.10   1.00000     0.00000

 31 32  0  0  0  0              1 V2000
    7.2775   14.9903   11.6865 H   0  0  0  0  0  0 
    8.2366   14.8351   12.2699 C   0  0  0  0  0  0 
    8.2401   13.0099   12.4965 S   0  0  0  0  0  0 
    9.0971   13.1202   14.0733 C   0  0  0  0  0  0 
   10.5102   12.0675   14.0955 S   0  0  0  0  0  0 
   10.0602   10.6996   14.2279 O   0  0  0  0  0  0 
   11.2641   12.5192   15.2991 O   0  0  0  0  0  0 
   11.5034   12.1952   12.8264 N   0  0  0  0  0  0 
   12.6706   11.4707   12.9954 C   0  0  0  0  0  0 
   12.7248   10.9893   14.0156 H   0  0  0  0  0  0 
   13.5642   12.1579   12.9168 H   0  0  0  0  0  0 
   12.8509   10.3445   11.9795 C   0  0  0  0  0  0 
   11.9907    9.6570   12.0219 H   0  0  0  0  0  0 
   13.8008    9.8279   12.1181 H   0  0  0  0  0  0 
   12.8452   11.0051   10.6582 N   0  0  0  0  0  0 
   14.0345   11.4178   10.1606 C   0  0  0  0  0  0 
   14.9634   11.6776   10.9081 O   0  0  0  0  0  0 
   14.2507   11.2895    8.6790 C   0  0  0  0  0  0 
   14.7696   10.3365    8.4741 H   0  0  0  0  0  0 
   13.2909   11.3480    8.1505 H   0  0  0  0  0  0 
   15.2905   12.6074    8.0904 Cl  0  0  0  0  0  0 
   11.6504   11.7605   10.3593 C   0  0  0  0  0  0 
   11.9256   12.6680    9.7718 H   0  0  0  0  0  0 
   11.0081   11.1117    9.6896 H   0  0  0  0  0  0 
   10.8633   12.1359   11.5915 C   0  0  0  0  0  0 
   10.4295   13.1800   11.3726 H   0  0  0  0  0  0 
    9.9704   11.4432   11.6624 H   0  0  0  0  0  0 
    9.1195   14.4087   14.5093 C   0  0  0  0  0  0 
    8.7428   14.8173   15.5433 H   0  0  0  0  0  0 
    8.6133   15.4202   13.4755 C   0  0  0  0  0  0 
    9.3251   16.3137   13.5495 H   0  0  0  0  0  0 
  1  2  1  0
  2  3  1  0
  2 30  2  0
  3  4  1  0
  4  5  1  0
  4 28  2  0
  5  6  2  0
  5  7  2  0
  5  8  1  0
  8  9  1  0
  8 25  1  0
  9 10  1  0
  9 11  1  0
  9 12  1  0
 12 13  1  0
 12 14  1  0
 12 15  1  0
 15 16  1  0
 15 22  1  0
 16 17  2  0
 16 18  1  0
 18 19  1  0
 18 20  1  0
 18 21  1  0
 22 23  1  0
 22 24  1  0
 22 25  1  0
 25 26  1  0
 25 27  1  0
 28 29  4  0
 28 30  1  0
 30 31  1  0
M  END
>  <name>


$$$$

 SMI23D  v 9.10   1.00000     0.00000

 29 30  0  0  0  0              1 V2000
   11.1180   10.0614   11.8947 H   0  0  0  0  0  0 
   12.1502   10.3413   11.3935 C   0  0  0  0  0  0 
   12.8001    9.2987   10.6692 C   0  0  0  0  0  0 
   13.6454    8.6399   11.0973 H   0  0  0  0  0  0 
   13.0526    9.4879    9.1182 C   0  0  0  0  0  0 
   14.2329    8.3921    8.5425 S   0  0  0  0  0  0 
   13.5719    7.1520    8.2250 O   0  0  0  0  0  0 
   15.3883    8.2923    9.3829 O   0  0  0  0  0  0 
   14.7571    9.0421    7.0935 N   0  0  0  0  0  0 
   14.8637    8.2820    6.4320 H   0  0  0  0  0  0 
   14.0046    9.6045    6.7060 H   0  0  0  0  0  0 
   13.2356   10.9288    8.9797 C   0  0  0  0  0  0 
   12.5564   11.5060    8.1567 H   0  0  0  0  0  0 
   13.2846   11.8206   10.1559 C   0  0  0  0  0  0 
   12.3727   11.8135   11.3283 C   0  0  0  0  0  0 
   11.0826   12.7273   11.4802 C   0  0  0  0  0  0 
   11.1498   13.1438   12.4768 H   0  0  0  0  0  0 
   10.2158   12.2465   11.1982 H   0  0  0  0  0  0 
   11.5436   13.8339   10.4341 C   0  0  0  0  0  0 
   10.6617   13.7868    9.6524 H   0  0  0  0  0  0 
   11.2915   14.8171   10.9931 H   0  0  0  0  0  0 
   12.7961   14.0026    9.7185 C   0  0  0  0  0  0 
   12.6129   13.9724    8.5796 H   0  0  0  0  0  0 
   13.2440   15.0196    9.8995 H   0  0  0  0  0  0 
   13.9743   13.0455    9.8482 N   0  0  0  0  0  0 
   14.8679   13.4132   10.9751 C   0  0  0  0  0  0 
   15.5156   14.2318   10.6513 H   0  0  0  0  0  0 
   15.4345   12.5149   11.2643 H   0  0  0  0  0  0 
   14.2075   13.7350   11.8140 H   0  0  0  0  0  0 
  1  2  1  0
  2  3  2  0
  2 15  1  0
  3  4  4  0
  3  5  1  0
  5  6  1  0
  5 12  2  0
  6  7  2  0
  6  8  2  0
  6  9  1  0
  9 10  1  0
  9 11  1  0
 12 13  4  0
 12 14  1  0
 14 15  2  0
 14 25  1  0
 15 16  1  0
 16 17  1  0
 16 18  1  0
 16 19  1  0
 19 20  1  0
 19 21  1  0
 19 22  1  0
 22 23  1  0
 22 24  1  0
 22 25  1  0
 25 26  1  0
 26 27  1  0
 26 28  1  0
 26 29  1  0
M  END
>  <name>


$$$$

 SMI23D  v 9.10   1.00000     0.00000

 12 12  0  0  0  0              1 V2000
    1.0899    2.5813    4.4046 H   0  0  0  0  0  0 
    1.5071    3.3940    5.0726 C   0  0  0  0  0  0 
    2.7848    2.9443    5.4865 N   0  0  0  0  0  0 
    3.7733    3.5730    4.9508 C   0  0  0  0  0  0 
    4.6348    2.8671    4.7613 H   0  0  0  0  0  0 
    3.9152    4.8471    4.0828 C   0  0  0  0  0  0 
    4.9305    5.6815    4.6280 N   0  0  0  0  0  0 
    5.5896    5.1429    4.9941 H   0  0  0  0  0  0 
    4.4537    6.2915    5.2145 H   0  0  0  0  0  0 
    2.5300    5.3489    3.9129 C   0  0  0  0  0  0 
    2.0978    5.6061    2.8845 H   0  0  0  0  0  0 
    1.6693    4.5213    4.5552 N   0  0  0  0  0  0 
  1  2  1  0
  2  3  1  0
  2 12  2  0
  3  4  2  0
  4  5  4  0
  4  6  1  0
  6  7  1  0
  6 10  2  0
  7  8  1  0
  7  9  1  0
 10 11  4  0
 10 12  1  0
M  END
>  <name>


$$$$

 SMI23D  v 9.10   1.00000     0.00000

 35 36  0  0  0  0              1 V2000
    7.7691    8.1551   12.3705 H   0  0  0  0  0  0 
    8.1540    9.1451   12.8477 C   0  0  0  0  0  0 
    9.0600    9.6960   11.7688 C   0  0  0  0  0  0 
    8.6799   10.7320   11.8570 H   0  0  0  0  0  0 
   10.5492    9.7580   11.7973 C   0  0  0  0  0  0 
   10.8452    9.1278   10.9417 H   0  0  0  0  0  0 
   11.1247    9.3270   13.1574 C   0  0  0  0  0  0 
   12.1335    8.3444   12.9490 N   0  0  0  0  0  0 
   11.6870    7.5572   12.6773 H   0  0  0  0  0  0 
   13.2271    8.6311   12.3908 C   0  0  0  0  0  0 
   14.2117    7.8876   12.6912 O   0  0  0  0  0  0 
   13.5282    9.8228   11.9166 N   0  0  0  0  0  0 
   14.4028   10.7045   12.7455 C   0  0  0  0  0  0 
   15.4469   10.4996   12.4717 H   0  0  0  0  0  0 
   14.2055   10.4971   13.7977 H   0  0  0  0  0  0 
   14.0416   12.1592   12.4021 C   0  0  0  0  0  0 
   14.1063   12.7577   13.3292 H   0  0  0  0  0  0 
   14.7711   12.5397   11.6524 H   0  0  0  0  0  0 
   12.6506   12.1681   11.8333 C   0  0  0  0  0  0 
   11.9555   11.6398   12.5218 H   0  0  0  0  0  0 
   12.1001   13.5747   11.7090 C   0  0  0  0  0  0 
   12.5635   14.4825   12.4017 O   0  0  0  0  0  0 
   10.7254   13.5547   11.5784 N   0  0  0  0  0  0 
   10.3526   13.5568   12.4529 H   0  0  0  0  0  0 
   10.4718   14.1932   10.9324 H   0  0  0  0  0  0 
   12.6524   11.5242   10.4548 C   0  0  0  0  0  0 
   11.6260   11.3499   10.0992 H   0  0  0  0  0  0 
   13.1698   12.2254    9.7422 H   0  0  0  0  0  0 
   13.4442   10.2259   10.5205 C   0  0  0  0  0  0 
   14.5016   10.4554   10.1718 H   0  0  0  0  0  0 
   13.0505    9.4447    9.8732 H   0  0  0  0  0  0 
   10.3027    9.2082   14.4030 C   0  0  0  0  0  0 
   10.5467    9.9795   15.2438 H   0  0  0  0  0  0 
    8.7856    9.1499   14.1704 C   0  0  0  0  0  0 
    8.1867    9.8630   14.8687 H   0  0  0  0  0  0 
  1  2  1  0
  2  3  1  0
  2 34  2  0
  3  4  4  0
  3  5  2  0
  5  6  4  0
  5  7  1  0
  7  8  1  0
  7 32  2  0
  8  9  1  0
  8 10  1  0
 10 11  2  0
 10 12  1  0
 12 13  1  0
 12 29  1  0
 13 14  1  0
 13 15  1  0
 13 16  1  0
 16 17  1  0
 16 18  1  0
 16 19  1  0
 19 20  1  0
 19 21  1  0
 19 26  1  0
 21 22  2  0
 21 23  1  0
 23 24  1  0
 23 25  1  0
 26 27  1  0
 26 28  1  0
 26 29  1  0
 29 30  1  0
 29 31  1  0
 32 33  4  0
 32 34  1  0
 34 35  1  0
M  END
>  <name>


$$$$

 SMI23D  v 9.10   1.00000     0.00000

 31 32  0  0  0  0              1 V2000
   10.8234   15.1082   10.4919 H   0  0  0  0  0  0 
   10.2135   15.3681   11.5005 C   0  0  0  0  0  0 
    9.0093   14.7453   11.8050 C   0  0  0  0  0  0 
    7.4342   15.8145   11.6958 Br  0  0  0  0  0  0 
    9.0930   14.1771   13.5340 S   0  0  0  0  0  0 
   10.9073   14.3953   13.6129 C   0  0  0  0  0  0 
   11.4282   13.1249   14.2713 C   0  0  0  0  0  0 
   12.3460   13.4520   14.8514 H   0  0  0  0  0  0 
   10.6812   12.8894   15.1081 H   0  0  0  0  0  0 
   11.6503   12.0648   13.4698 N   0  0  0  0  0  0 
   12.8385   11.9505   12.7674 C   0  0  0  0  0  0 
   13.7507   11.9975   13.4468 H   0  0  0  0  0  0 
   12.9552   12.7764   12.0144 H   0  0  0  0  0  0 
   12.9676   10.6155   12.0279 C   0  0  0  0  0  0 
   13.9065   10.6118   11.4420 H   0  0  0  0  0  0 
   12.9627    9.7882   12.7565 H   0  0  0  0  0  0 
   11.8394   10.4691   11.1089 N   0  0  0  0  0  0 
   11.6851    9.2783   10.4777 C   0  0  0  0  0  0 
   12.0799    8.2521   10.9961 O   0  0  0  0  0  0 
   11.2966    9.3357    9.0284 C   0  0  0  0  0  0 
   11.8193   10.1755    8.5434 H   0  0  0  0  0  0 
   11.5577    8.3742    8.5485 H   0  0  0  0  0  0 
    9.5506    9.5835    8.8447 Cl  0  0  0  0  0  0 
   10.6485   11.2492   11.4167 C   0  0  0  0  0  0 
    9.7500   10.7292   11.0552 H   0  0  0  0  0  0 
   10.7385   12.2566   10.9858 H   0  0  0  0  0  0 
   10.5757   11.3575   12.9574 C   0  0  0  0  0  0 
   10.5913   10.2887   13.3479 H   0  0  0  0  0  0 
    9.5723   11.7670   13.2024 H   0  0  0  0  0  0 
   11.3163   15.1333   12.5613 C   0  0  0  0  0  0 
   11.9867   16.0581   12.5234 H   0  0  0  0  0  0 
  1  2  1  0
  2  3  2  0
  2 30  1  0
  3  4  1  0
  3  5  1  0
  5  6  1  0
  6  7  1  0
  6 30  2  0
  7  8  1  0
  7  9  1  0
  7 10  1  0
 10 11  1  0
 10 27  1  0
 11 12  1  0
 11 13  1  0
 11 14  1  0
 14 15  1  0
 14 16  1  0
 14 17  1  0
 17 18  1  0
 17 24  1  0
 18 19  2  0
 18 20  1  0
 20 21  1  0
 20 22  1  0
 20 23  1  0
 24 25  1  0
 24 26  1  0
 24 27  1  0
 27 28  1  0
 27 29  1  0
 30 31  1  0
M  END
>  <name>


$$$$

 SMI23D  v 9.10   1.00000     0.00000

 23 23  0  0  0  0              1 V2000
    6.8223   11.7331    7.6046 H   0  0  0  0  0  0 
    7.5884   11.7568    8.4607 C   0  0  0  0  0  0 
    7.6543   10.3074    8.9089 C   0  0  0  0  0  0 
    7.6516   10.6710   10.0043 H   0  0  0  0  0  0 
    8.8281    9.4014    8.7282 C   0  0  0  0  0  0 
    8.3189    8.1633    8.1753 C   0  0  0  0  0  0 
    8.1414    8.1980    7.0952 H   0  0  0  0  0  0 
    9.0765    7.3495    8.4334 H   0  0  0  0  0  0 
    6.8318    7.6595    9.0203 S   0  0  0  0  0  0 
    6.8773    6.2084    9.1760 O   0  0  0  0  0  0 
    6.7356    8.3799   10.2467 O   0  0  0  0  0  0 
    5.5114    7.9922    8.0869 N   0  0  0  0  0  0 
    4.6779    7.6936    8.6044 H   0  0  0  0  0  0 
    5.5156    7.3596    7.2841 H   0  0  0  0  0  0 
   10.0201   10.1033    8.1223 C   0  0  0  0  0  0 
   10.5241    9.3870    6.7554 C   0  0  0  0  0  0 
    9.8719    9.8142    5.9894 H   0  0  0  0  0  0 
   10.6164    8.3698    6.8309 H   0  0  0  0  0  0 
   11.5588    9.8790    6.6603 H   0  0  0  0  0  0 
   10.1956   11.5971    8.1287 C   0  0  0  0  0  0 
   11.0013   12.0343    8.8361 H   0  0  0  0  0  0 
    8.8804   12.3781    8.2833 C   0  0  0  0  0  0 
    9.0774   13.3529    9.1979 F   0  0  0  0  0  0 
  1  2  1  0
  2  3  1  0
  2 22  2  0
  3  4  4  0
  3  5  2  0
  5  6  1  0
  5 15  1  0
  6  7  1  0
  6  8  1  0
  6  9  1  0
  9 10  2  0
  9 11  2  0
  9 12  1  0
 12 13  1  0
 12 14  1  0
 15 16  1  0
 15 20  2  0
 16 17  1  0
 16 18  1  0
 16 19  1  0
 20 21  4  0
 20 22  1  0
 22 23  1  0
M  END
>  <name>


$$$$

 SMI23D  v 9.10   1.00000     0.00000

 35 36  0  0  0  0              1 V2000
   10.9233    9.7967    7.6571 H   0  0  0  0  0  0 
   10.8194    9.5170    8.7820 C   0  0  0  0  0  0 
   11.7671   10.3878    9.5425 C   0  0  0  0  0  0 
   12.1985   11.0129    8.7606 H   0  0  0  0  0  0 
   12.9470    9.9473   10.3226 C   0  0  0  0  0  0 
   12.5961   10.1892   11.6213 N   0  0  0  0  0  0 
   13.1744   11.5736   11.9532 C   0  0  0  0  0  0 
   12.7577   12.2513   11.1816 H   0  0  0  0  0  0 
   14.2554   11.4657   11.8602 H   0  0  0  0  0  0 
   12.7433   12.0093   13.3198 C   0  0  0  0  0  0 
   11.8401   12.6569   13.2741 H   0  0  0  0  0  0 
   13.5549   12.5410   13.8489 H   0  0  0  0  0  0 
   12.3864   10.8056   14.1034 N   0  0  0  0  0  0 
   13.4622   10.0316   14.4770 C   0  0  0  0  0  0 
   14.1345    9.5505   13.5683 O   0  0  0  0  0  0 
   14.1190   10.4198   15.7748 C   0  0  0  0  0  0 
   14.6827    9.5490   16.1595 H   0  0  0  0  0  0 
   14.7947   11.2742   15.6031 H   0  0  0  0  0  0 
   12.9158   10.8842   16.9842 Cl  0  0  0  0  0  0 
   11.2004   10.0957   13.6153 C   0  0  0  0  0  0 
   10.3086   10.6828   13.9505 H   0  0  0  0  0  0 
   11.1762    9.0904   14.0522 H   0  0  0  0  0  0 
   11.2267   10.0479   12.0984 C   0  0  0  0  0  0 
   10.6318   10.9128   11.7042 H   0  0  0  0  0  0 
   10.8004    9.1033   11.7305 H   0  0  0  0  0  0 
   12.9789    8.4813   10.2426 C   0  0  0  0  0  0 
   13.9351    8.4931    9.5990 H   0  0  0  0  0  0 
   12.1458    7.4340    9.7618 C   0  0  0  0  0  0 
   11.9511    6.6926   10.5516 H   0  0  0  0  0  0 
   10.8809    8.0938    9.1860 C   0  0  0  0  0  0 
    9.6449    7.6192    9.7605 O   0  0  0  0  0  0 
    8.9861    6.7384    8.8854 C   0  0  0  0  0  0 
    8.0192    6.4931    9.3393 H   0  0  0  0  0  0 
    8.8642    7.2602    7.9199 H   0  0  0  0  0  0 
    9.6260    5.8457    8.7732 H   0  0  0  0  0  0 
  1  2  1  0
  2  3  1  0
  2 30  2  0
  3  4  4  0
  3  5  2  0
  5  6  1  0
  5 26  1  0
  6  7  1  0
  6 23  1  0
  7  8  1  0
  7  9  1  0
  7 10  1  0
 10 11  1  0
 10 12  1  0
 10 13  1  0
 13 14  1  0
 13 20  1  0
 14 15  2  0
 14 16  1  0
 16 17  1  0
 16 18  1  0
 16 19  1  0
 20 21  1  0
 20 22  1  0
 20 23  1  0
 23 24  1  0
 23 25  1  0
 26 27  4  0
 26 28  2  0
 28 29  4  0
 28 30  1  0
 30 31  1  0
 31 32  1  0
 32 33  1  0
 32 34  1  0
 32 35  1  0
M  END
>  <name>


$$$$

 SMI23D  v 9.10   1.00000     0.00000

 28 27  0  0  0  0              1 V2000
    9.7020   10.3631    7.8857 H   0  0  0  0  0  0 
   10.4834   10.1631    8.3665 O   0  0  0  0  0  0 
   10.1221    9.0040    9.1678 C   0  0  0  0  0  0 
    9.4215    8.4554    8.4313 H   0  0  0  0  0  0 
   11.3377    8.2097    9.3619 C   0  0  0  0  0  0 
   12.2527    8.7786    8.9796 H   0  0  0  0  0  0 
   11.5613    7.8583   10.3770 H   0  0  0  0  0  0 
   11.3099    7.2634    8.7012 H   0  0  0  0  0  0 
    9.3348    9.5082   10.3068 C   0  0  0  0  0  0 
    8.2771    9.0519   10.2695 H   0  0  0  0  0  0 
    9.8660    9.1185   11.6782 C   0  0  0  0  0  0 
   10.9529    9.6161   12.0326 O   0  0  0  0  0  0 
    8.9321    8.9649   12.6300 N   0  0  0  0  0  0 
    8.3728    9.7340   12.6717 H   0  0  0  0  0  0 
    8.5675    7.7072   13.2021 C   0  0  0  0  0  0 
    8.2561    6.9847   12.4156 H   0  0  0  0  0  0 
    7.6996    7.8694   13.8974 H   0  0  0  0  0  0 
    9.6823    7.1417   13.9687 C   0  0  0  0  0  0 
   10.6008    6.6881   14.5930 C   0  0  0  0  0  0 
   10.5297    7.1841   16.0391 Br  0  0  0  0  0  0 
    9.1525   10.9302   10.2535 N   0  0  0  0  0  0 
    8.3870   11.3444    9.8894 H   0  0  0  0  0  0 
    9.9646   11.8288   10.8435 C   0  0  0  0  0  0 
    9.4590   12.5849   11.6879 O   0  0  0  0  0  0 
   11.0834   12.3581    9.9665 C   0  0  0  0  0  0 
   10.6547   12.5817    8.9714 H   0  0  0  0  0  0 
   11.8619   11.5780    9.8939 H   0  0  0  0  0  0 
   11.4952   13.2760   10.4257 H   0  0  0  0  0  0 
  1  2  1  0
  2  3  1  0
  3  4  1  0
  3  5  1  0
  3  9  1  0
  5  6  1  0
  5  7  1  0
  5  8  1  0
  9 10  1  0
  9 11  1  0
  9 21  1  0
 11 12  2  0
 11 13  1  0
 13 14  1  0
 13 15  1  0
 15 16  1  0
 15 17  1  0
 15 18  1  0
 18 19  3  0
 19 20  1  0
 21 22  1  0
 21 23  1  0
 23 24  2  0
 23 25  1  0
 25 26  1  0
 25 27  1  0
 25 28  1  0
M  END
>  <name>


$$$$

 SMI23D  v 9.10   1.00000     0.00000

 26 26  0  0  0  0              1 V2000
    8.4218   10.1390   12.9636 H   0  0  0  0  0  0 
    7.9795   11.1073   12.7282 C   0  0  0  0  0  0 
    7.7549   11.1371   11.2416 C   0  0  0  0  0  0 
    8.2561   10.2456   10.8850 H   0  0  0  0  0  0 
    8.1914   12.1932   10.2742 C   0  0  0  0  0  0 
    6.9344   12.8608   10.0088 C   0  0  0  0  0  0 
    6.8828   13.3218    8.8261 O   0  0  0  0  0  0 
    5.8534   12.1349   10.3623 O   0  0  0  0  0  0 
    5.1467   12.5656   11.4813 C   0  0  0  0  0  0 
    5.2188   13.6658   11.5360 H   0  0  0  0  0  0 
    4.0904   12.2496   11.3650 H   0  0  0  0  0  0 
    5.5914   12.0961   12.3787 H   0  0  0  0  0  0 
    8.8896   13.2145   11.0766 C   0  0  0  0  0  0 
    8.3897   14.1444   10.7031 H   0  0  0  0  0  0 
    9.3335   13.4046   12.3813 C   0  0  0  0  0  0 
   10.6620   13.2450   12.4215 N   0  0  0  0  0  0 
   11.0376   13.7024   11.6469 H   0  0  0  0  0  0 
   11.2499   11.7476   12.4972 S   0  0  0  0  0  0 
   12.6785   11.8686   12.1891 O   0  0  0  0  0  0 
   10.5440   10.8893   11.6037 O   0  0  0  0  0  0 
   11.1431   11.0895   14.1391 C   0  0  0  0  0  0 
   10.6083   10.1146   14.1353 H   0  0  0  0  0  0 
   10.6061   11.8115   14.7956 H   0  0  0  0  0  0 
   12.1683   10.9177   14.5575 H   0  0  0  0  0  0 
    8.5900   12.3535   13.2427 C   0  0  0  0  0  0 
    7.8587   13.0085   13.8701 H   0  0  0  0  0  0 
  1  2  1  0
  2  3  1  0
  2 25  2  0
  3  4  4  0
  3  5  2  0
  5  6  1  0
  5 13  1  0
  6  7  2  0
  6  8  1  0
  8  9  1  0
  9 10  1  0
  9 11  1  0
  9 12  1  0
 13 14  4  0
 13 15  2  0
 15 16  1  0
 15 25  1  0
 16 17  1  0
 16 18  1  0
 18 19  2  0
 18 20  2  0
 18 21  1  0
 21 22  1  0
 21 23  1  0
 21 24  1  0
 25 26  1  0
M  END
>  <name>


$$$$

 SMI23D  v 9.10   1.00000     0.00000

 26 26  0  0  0  0              1 V2000
    8.4218   10.1390   12.9636 H   0  0  0  0  0  0 
    7.9795   11.1073   12.7282 C   0  0  0  0  0  0 
    7.7549   11.1371   11.2416 C   0  0  0  0  0  0 
    8.2561   10.2456   10.8850 H   0  0  0  0  0  0 
    8.1914   12.1932   10.2742 C   0  0  0  0  0  0 
    6.9344   12.8608   10.0088 C   0  0  0  0  0  0 
    6.8828   13.3218    8.8261 O   0  0  0  0  0  0 
    5.8534   12.1349   10.3623 O   0  0  0  0  0  0 
    5.1467   12.5656   11.4813 C   0  0  0  0  0  0 
    5.2188   13.6658   11.5360 H   0  0  0  0  0  0 
    4.0904   12.2496   11.3650 H   0  0  0  0  0  0 
    5.5914   12.0961   12.3787 H   0  0  0  0  0  0 
    8.8896   13.2145   11.0766 C   0  0  0  0  0  0 
    8.3897   14.1444   10.7031 H   0  0  0  0  0  0 
    9.3335   13.4046   12.3813 C   0  0  0  0  0  0 
   10.6620   13.2450   12.4215 N   0  0  0  0  0  0 
   11.0376   13.7024   11.6469 H   0  0  0  0  0  0 
   11.2499   11.7476   12.4972 S   0  0  0  0  0  0 
   12.6785   11.8686   12.1891 O   0  0  0  0  0  0 
   10.5440   10.8893   11.6037 O   0  0  0  0  0  0 
   11.1431   11.0895   14.1391 C   0  0  0  0  0  0 
   10.6083   10.1146   14.1353 H   0  0  0  0  0  0 
   10.6061   11.8115   14.7956 H   0  0  0  0  0  0 
   12.1683   10.9177   14.5575 H   0  0  0  0  0  0 
    8.5900   12.3535   13.2427 C   0  0  0  0  0  0 
    7.8587   13.0085   13.8701 H   0  0  0  0  0  0 
  1  2  1  0
  2  3  1  0
  2 25  2  0
  3  4  4  0
  3  5  2  0
  5  6  1  0
  5 13  1  0
  6  7  2  0
  6  8  1  0
  8  9  1  0
  9 10  1  0
  9 11  1  0
  9 12  1  0
 13 14  4  0
 13 15  2  0
 15 16  1  0
 15 25  1  0
 16 17  1  0
 16 18  1  0
 18 19  2  0
 18 20  2  0
 18 21  1  0
 21 22  1  0
 21 23  1  0
 21 24  1  0
 25 26  1  0
M  END
>  <name>


$$$$

 SMI23D  v 9.10   1.00000     0.00000

 30 31  0  0  0  0              1 V2000
    9.3595   12.1225    9.7759 H   0  0  0  0  0  0 
   10.0495   11.4197    9.3030 C   0  0  0  0  0  0 
   10.6903   10.5436   10.3875 C   0  0  0  0  0  0 
   10.1864   10.6442   11.7168 C   0  0  0  0  0  0 
    9.0389   10.9612   11.9638 O   0  0  0  0  0  0 
   11.1877   10.9659   12.5328 N   0  0  0  0  0  0 
   11.4347   11.8726   12.4772 H   0  0  0  0  0  0 
   11.9702    9.9703   13.2255 C   0  0  0  0  0  0 
   11.4763    8.9758   13.1209 H   0  0  0  0  0  0 
   12.9832    9.9193   12.7539 H   0  0  0  0  0  0 
   12.0967   10.3329   14.6849 C   0  0  0  0  0  0 
   11.1782   10.1698   15.2406 H   0  0  0  0  0  0 
   12.4354   11.7034   14.7604 O   0  0  0  0  0  0 
   13.8248   11.8452   14.6220 C   0  0  0  0  0  0 
   14.1505   12.6681   15.2676 H   0  0  0  0  0  0 
   14.0489   12.0290   13.5653 H   0  0  0  0  0  0 
   14.4670   10.5279   15.0786 C   0  0  0  0  0  0 
   15.0179   10.6691   16.0127 H   0  0  0  0  0  0 
   15.0964   10.1156   14.2765 H   0  0  0  0  0  0 
   13.2740    9.5799   15.3211 C   0  0  0  0  0  0 
   13.4397    8.6222   14.8345 H   0  0  0  0  0  0 
   13.1063    9.4842   16.4060 H   0  0  0  0  0  0 
   11.9513   10.6391   10.3679 N   0  0  0  0  0  0 
   12.4288   11.4030    9.2403 N   0  0  0  0  0  0 
   13.6352   12.0961    9.6675 C   0  0  0  0  0  0 
   13.9077   12.8583    8.9121 H   0  0  0  0  0  0 
   14.4565   11.3560    9.7759 H   0  0  0  0  0  0 
   13.4409   12.5840   10.6477 H   0  0  0  0  0  0 
   11.2911   12.2308    8.7774 C   0  0  0  0  0  0 
   11.3193   13.1705    9.3825 H   0  0  0  0  0  0 
  1  2  1  0
  2  3  1  0
  2 29  1  0
  3  4  1  0
  3 23  2  0
  4  5  2  0
  4  6  1  0
  6  7  1  0
  6  8  1  0
  8  9  1  0
  8 10  1  0
  8 11  1  0
 11 12  1  0
 11 13  1  0
 11 20  1  0
 13 14  1  0
 14 15  1  0
 14 16  1  0
 14 17  1  0
 17 18  1  0
 17 19  1  0
 17 20  1  0
 20 21  1  0
 20 22  1  0
 23 24  1  0
 24 25  1  0
 24 29  1  0
 25 26  1  0
 25 27  1  0
 25 28  1  0
 29 30  1  0
M  END
>  <name>


$$$$

 SMI23D  v 9.10   1.00000     0.00000

 21 21  0  0  0  0              1 V2000
   10.9563    8.0229    7.7001 H   0  0  0  0  0  0 
   10.3414    7.6253    8.6165 C   0  0  0  0  0  0 
    9.7073    8.8827    9.0110 N   0  0  0  0  0  0 
    8.4228    8.6323    9.0978 C   0  0  0  0  0  0 
    7.9544    9.3224    9.8284 H   0  0  0  0  0  0 
    7.3710    7.6866    8.4690 C   0  0  0  0  0  0 
    6.6177    8.5098    7.5882 N   0  0  0  0  0  0 
    7.2056    9.0680    7.0949 H   0  0  0  0  0  0 
    5.8525    9.2703    8.4061 C   0  0  0  0  0  0 
    5.5151   10.3887    8.0170 O   0  0  0  0  0  0 
    5.0815    8.5597    9.4798 C   0  0  0  0  0  0 
    4.5881    7.6764    9.0285 H   0  0  0  0  0  0 
    4.3152    9.2558    9.8907 H   0  0  0  0  0  0 
    5.7605    8.2469   10.2962 H   0  0  0  0  0  0 
    8.0007    6.3943    8.1758 C   0  0  0  0  0  0 
    7.3507    5.0496    8.4891 C   0  0  0  0  0  0 
    6.2646    5.1702    8.3478 H   0  0  0  0  0  0 
    7.5436    4.7883    9.5497 H   0  0  0  0  0  0 
    7.7576    4.3052    7.7996 H   0  0  0  0  0  0 
    9.4761    6.4796    8.5134 C   0  0  0  0  0  0 
    9.8562    5.6118    9.1929 H   0  0  0  0  0  0 
  1  2  1  0
  2  3  1  0
  2 20  2  0
  3  4  2  0
  4  5  4  0
  4  6  1  0
  6  7  1  0
  6 15  2  0
  7  8  1  0
  7  9  1  0
  9 10  2  0
  9 11  1  0
 11 12  1  0
 11 13  1  0
 11 14  1  0
 15 16  1  0
 15 20  1  0
 16 17  1  0
 16 18  1  0
 16 19  1  0
 20 21  1  0
M  END
>  <name>


$$$$

 SMI23D  v 9.10   1.00000     0.00000

 30 31  0  0  0  0              1 V2000
    9.5016   12.5300    9.5187 H   0  0  0  0  0  0 
    9.6341   13.4041   10.1680 C   0  0  0  0  0  0 
    9.1883   13.3903   11.4053 N   0  0  0  0  0  0 
    8.8898   14.7678   11.7090 N   0  0  0  0  0  0 
    9.9324   15.3284   12.5375 C   0  0  0  0  0  0 
    9.4830   16.2996   12.9697 H   0  0  0  0  0  0 
   10.8095   15.6197   11.9770 H   0  0  0  0  0  0 
   10.2249   14.4484   13.7059 C   0  0  0  0  0  0 
    9.4150   14.4660   14.6494 O   0  0  0  0  0  0 
   11.3909   13.7579   13.7885 N   0  0  0  0  0  0 
   11.7446   12.8304   12.7149 C   0  0  0  0  0  0 
   11.0181   11.9736   12.7734 H   0  0  0  0  0  0 
   11.6474   13.3118   11.7258 H   0  0  0  0  0  0 
   13.1491   12.3153   12.8978 C   0  0  0  0  0  0 
   13.7760   12.6472   11.9988 H   0  0  0  0  0  0 
   13.1595   11.2044   12.8795 H   0  0  0  0  0  0 
   13.7791   12.7958   13.9861 O   0  0  0  0  0  0 
   13.1080   12.6755   15.1714 C   0  0  0  0  0  0 
   13.7562   13.2922   15.9171 H   0  0  0  0  0  0 
   13.1485   11.2583   15.6904 C   0  0  0  0  0  0 
   12.4413   10.5883   15.1758 H   0  0  0  0  0  0 
   14.1914   10.8550   15.5660 H   0  0  0  0  0  0 
   12.9178   11.2601   16.7906 H   0  0  0  0  0  0 
   11.7530   13.2718   15.1528 C   0  0  0  0  0  0 
   10.9485   12.5579   15.4422 H   0  0  0  0  0  0 
   11.6788   14.1690   15.8209 H   0  0  0  0  0  0 
    8.8599   15.4462   10.5280 C   0  0  0  0  0  0 
    7.8901   15.9303   10.5147 H   0  0  0  0  0  0 
    9.2116   14.7106    9.5530 C   0  0  0  0  0  0 
    9.9746   14.9954    8.7540 H   0  0  0  0  0  0 
  1  2  1  0
  2  3  2  0
  2 29  1  0
  3  4  1  0
  4  5  1  0
  4 27  1  0
  5  6  1  0
  5  7  1  0
  5  8  1  0
  8  9  2  0
  8 10  1  0
 10 11  1  0
 10 24  1  0
 11 12  1  0
 11 13  1  0
 11 14  1  0
 14 15  1  0
 14 16  1  0
 14 17  1  0
 17 18  1  0
 18 19  1  0
 18 20  1  0
 18 24  1  0
 20 21  1  0
 20 22  1  0
 20 23  1  0
 24 25  1  0
 24 26  1  0
 27 28  4  0
 27 29  2  0
 29 30  1  0
M  END
>  <name>


$$$$

 SMI23D  v 9.10   1.00000     0.00000

 38 39  0  0  0  0              1 V2000
   15.3962   16.0508   16.9038 H   0  0  0  0  0  0 
   15.3528   15.0899   17.4929 C   0  0  0  0  0  0 
   13.9987   15.0610   18.1830 C   0  0  0  0  0  0 
   13.5470   15.9858   17.8678 H   0  0  0  0  0  0 
   12.9334   14.0361   18.0362 C   0  0  0  0  0  0 
   12.9641   13.1975   19.3421 C   0  0  0  0  0  0 
   14.0308   13.0296   19.5883 H   0  0  0  0  0  0 
   12.4797   13.8098   20.1109 H   0  0  0  0  0  0 
   12.4374   12.2782   19.1207 H   0  0  0  0  0  0 
   13.4330   13.1108   16.9778 C   0  0  0  0  0  0 
   12.7020   13.5365   16.2092 H   0  0  0  0  0  0 
   14.6657   12.8191   16.3027 C   0  0  0  0  0  0 
   14.9041   11.7508   16.4506 H   0  0  0  0  0  0 
   15.7200   13.7854   16.9037 C   0  0  0  0  0  0 
   16.8060   13.1227   17.5677 O   0  0  0  0  0  0 
   18.0837   13.5039   17.2235 C   0  0  0  0  0  0 
   18.5253   13.9937   18.1477 H   0  0  0  0  0  0 
   18.7017   12.6277   16.9870 H   0  0  0  0  0  0 
   18.1004   14.5021   16.1139 C   0  0  0  0  0  0 
   18.0824   15.7053   16.4016 O   0  0  0  0  0  0 
   18.1595   14.0704   14.8468 N   0  0  0  0  0  0 
   18.3036   15.1051   13.7829 C   0  0  0  0  0  0 
   18.6364   14.5901   12.8644 H   0  0  0  0  0  0 
   18.9945   15.8748   14.0936 H   0  0  0  0  0  0 
   16.8894   15.6536   13.5846 C   0  0  0  0  0  0 
   16.8857   16.1908   12.6075 H   0  0  0  0  0  0 
   16.7469   16.4478   14.3965 H   0  0  0  0  0  0 
   15.8797   14.7000   13.7116 N   0  0  0  0  0  0 
   14.7146   15.0750   13.0213 C   0  0  0  0  0  0 
   14.8313   14.9535   11.9208 H   0  0  0  0  0  0 
   13.8012   14.5194   13.3543 H   0  0  0  0  0  0 
   14.4864   16.1658   13.2321 H   0  0  0  0  0  0 
   16.2673   13.3846   13.4592 C   0  0  0  0  0  0 
   15.4099   12.6698   13.6349 H   0  0  0  0  0  0 
   16.5919   13.2455   12.3978 H   0  0  0  0  0  0 
   17.3971   12.9171   14.3831 C   0  0  0  0  0  0 
   18.0969   12.2798   13.7779 H   0  0  0  0  0  0 
   16.9916   12.3361   15.2129 H   0  0  0  0  0  0 
  1  2  1  0
  2  3  1  0
  2 14  2  0
  3  4  4  0
  3  5  2  0
  5  6  1  0
  5 10  1  0
  6  7  1  0
  6  8  1  0
  6  9  1  0
 10 11  4  0
 10 12  2  0
 12 13  4  0
 12 14  1  0
 14 15  1  0
 15 16  1  0
 16 17  1  0
 16 18  1  0
 16 19  1  0
 19 20  2  0
 19 21  1  0
 21 22  1  0
 21 36  1  0
 22 23  1  0
 22 24  1  0
 22 25  1  0
 25 26  1  0
 25 27  1  0
 25 28  1  0
 28 29  1  0
 28 33  1  0
 29 30  1  0
 29 31  1  0
 29 32  1  0
 33 34  1  0
 33 35  1  0
 33 36  1  0
 36 37  1  0
 36 38  1  0
M  END
>  <name>


$$$$

 SMI23D  v 9.10   1.00000     0.00000

 35 36  0  0  0  0              1 V2000
    8.3731    8.9890    8.1578 H   0  0  0  0  0  0 
    9.4979    9.1531    8.2368 C   0  0  0  0  0  0 
    9.5947   10.5453    8.8216 C   0  0  0  0  0  0 
   10.1844   10.9896    8.0409 H   0  0  0  0  0  0 
   10.1355   10.9569   10.1107 C   0  0  0  0  0  0 
    9.3288   11.2742   10.7997 H   0  0  0  0  0  0 
   10.9174    9.7437   10.7810 C   0  0  0  0  0  0 
   12.4311   10.6210   11.0566 S   0  0  0  0  0  0 
   12.7696   11.3006    9.7613 O   0  0  0  0  0  0 
   12.0402   11.6816   12.0430 O   0  0  0  0  0  0 
   13.7416    9.9039   11.5504 N   0  0  0  0  0  0 
   14.4178   10.6390   12.5649 C   0  0  0  0  0  0 
   15.4804   10.3227   12.7100 H   0  0  0  0  0  0 
   14.4971   11.7217   12.2366 H   0  0  0  0  0  0 
   13.6652   10.5530   13.8678 C   0  0  0  0  0  0 
   13.2964   11.5355   14.1965 H   0  0  0  0  0  0 
   14.3033   10.0918   14.6544 H   0  0  0  0  0  0 
   12.4916    9.6537   13.6895 N   0  0  0  0  0  0 
   11.6425    9.6176   14.7658 C   0  0  0  0  0  0 
   12.1143    9.3587   15.8609 O   0  0  0  0  0  0 
   10.2706   10.1736   14.6028 C   0  0  0  0  0  0 
    9.5705    9.5977   15.2510 H   0  0  0  0  0  0 
   10.2629   11.2401   14.8979 H   0  0  0  0  0  0 
    9.6841   10.0496   12.9406 Cl  0  0  0  0  0  0 
   12.8285    8.3281   13.1158 C   0  0  0  0  0  0 
   11.9001    7.7959   12.8997 H   0  0  0  0  0  0 
   13.4233    7.7894   13.8873 H   0  0  0  0  0  0 
   13.6609    8.5438   11.8717 C   0  0  0  0  0  0 
   14.6903    8.0963   12.0443 H   0  0  0  0  0  0 
   13.2779    7.9468   11.0096 H   0  0  0  0  0  0 
   10.9350    8.4072   10.3645 C   0  0  0  0  0  0 
   10.2074    7.5785   11.0845 C   0  0  0  0  0  0 
    9.2312    8.1161   11.4235 N   0  0  0  0  0  0 
   10.3011    8.1538    8.9343 C   0  0  0  0  0  0 
   11.2111    7.7807    8.3362 H   0  0  0  0  0  0 
  1  2  1  0
  2  3  1  0
  2 34  2  0
  3  4  4  0
  3  5  2  0
  5  6  4  0
  5  7  1  0
  7  8  1  0
  7 31  2  0
  8  9  2  0
  8 10  2  0
  8 11  1  0
 11 12  1  0
 11 28  1  0
 12 13  1  0
 12 14  1  0
 12 15  1  0
 15 16  1  0
 15 17  1  0
 15 18  1  0
 18 19  1  0
 18 25  1  0
 19 20  2  0
 19 21  1  0
 21 22  1  0
 21 23  1  0
 21 24  1  0
 25 26  1  0
 25 27  1  0
 25 28  1  0
 28 29  1  0
 28 30  1  0
 31 32  1  0
 31 34  1  0
 32 33  3  0
 34 35  1  0
M  END
>  <name>


$$$$

 SMI23D  v 9.10   1.00000     0.00000

 37 38  0  0  0  0              1 V2000
   12.6733   12.4091   13.4906 H   0  0  0  0  0  0 
   12.2701   12.1413   14.5340 C   0  0  0  0  0  0 
   13.1231   12.9973   15.4682 C   0  0  0  0  0  0 
   12.2427   13.3651   16.0447 H   0  0  0  0  0  0 
   14.1359   12.5321   16.4291 C   0  0  0  0  0  0 
   15.6335   12.9861   15.7971 S   0  0  0  0  0  0 
   16.6252   12.5553   16.8617 O   0  0  0  0  0  0 
   15.9761   12.4817   14.5023 O   0  0  0  0  0  0 
   15.8459   14.5948   15.7942 N   0  0  0  0  0  0 
   14.7506   15.3920   15.4478 C   0  0  0  0  0  0 
   13.8562   15.2416   16.0601 H   0  0  0  0  0  0 
   15.0323   16.4833   15.6466 H   0  0  0  0  0  0 
   14.4752   15.2518   13.9623 C   0  0  0  0  0  0 
   14.3549   14.1796   13.6996 H   0  0  0  0  0  0 
   13.6081   15.8359   13.6696 H   0  0  0  0  0  0 
   15.6853   15.6852   13.2273 N   0  0  0  0  0  0 
   15.8053   15.1533   11.9521 C   0  0  0  0  0  0 
   16.5410   14.1529   11.8610 O   0  0  0  0  0  0 
   14.5926   15.2074   11.0672 C   0  0  0  0  0  0 
   14.0185   16.1156   11.2371 H   0  0  0  0  0  0 
   13.9969   14.2894   11.2277 H   0  0  0  0  0  0 
   15.0978   15.2045    9.3515 Cl  0  0  0  0  0  0 
   16.8871   15.9349   13.9649 C   0  0  0  0  0  0 
   16.9586   17.0324   14.2060 H   0  0  0  0  0  0 
   17.7944   15.7366   13.3054 H   0  0  0  0  0  0 
   17.0354   15.1000   15.2185 C   0  0  0  0  0  0 
   17.7623   14.2669   15.0251 H   0  0  0  0  0  0 
   17.5406   15.7752   15.9975 H   0  0  0  0  0  0 
   14.0818   11.0613   16.4118 C   0  0  0  0  0  0 
   15.1176   10.8024   16.0622 H   0  0  0  0  0  0 
   13.2260   10.0576   15.8694 C   0  0  0  0  0  0 
   12.7544    9.4825   16.7551 H   0  0  0  0  0  0 
   12.1626   10.7473   15.0320 C   0  0  0  0  0  0 
   10.6815   10.3631   15.3215 C   0  0  0  0  0  0 
   10.3304   11.0855   16.0789 H   0  0  0  0  0  0 
   10.1632   10.5732   14.3487 H   0  0  0  0  0  0 
   10.5822    9.3361   15.5996 H   0  0  0  0  0  0 
  1  2  1  0
  2  3  1  0
  2 33  2  0
  3  4  4  0
  3  5  2  0
  5  6  1  0
  5 29  1  0
  6  7  2  0
  6  8  2  0
  6  9  1  0
  9 10  1  0
  9 26  1  0
 10 11  1  0
 10 12  1  0
 10 13  1  0
 13 14  1  0
 13 15  1  0
 13 16  1  0
 16 17  1  0
 16 23  1  0
 17 18  2  0
 17 19  1  0
 19 20  1  0
 19 21  1  0
 19 22  1  0
 23 24  1  0
 23 25  1  0
 23 26  1  0
 26 27  1  0
 26 28  1  0
 29 30  4  0
 29 31  2  0
 31 32  4  0
 31 33  1  0
 33 34  1  0
 34 35  1  0
 34 36  1  0
 34 37  1  0
M  END
>  <name>


$$$$

 SMI23D  v 9.10   1.00000     0.00000

 35 36  0  0  0  0              1 V2000
    7.7691    8.1551   12.3705 H   0  0  0  0  0  0 
    8.1540    9.1451   12.8477 C   0  0  0  0  0  0 
    9.0600    9.6960   11.7688 C   0  0  0  0  0  0 
    8.6799   10.7320   11.8570 H   0  0  0  0  0  0 
   10.5492    9.7580   11.7973 C   0  0  0  0  0  0 
   10.8452    9.1278   10.9417 H   0  0  0  0  0  0 
   11.1247    9.3270   13.1574 C   0  0  0  0  0  0 
   12.1335    8.3444   12.9490 N   0  0  0  0  0  0 
   11.6870    7.5572   12.6773 H   0  0  0  0  0  0 
   13.2271    8.6311   12.3908 C   0  0  0  0  0  0 
   14.2117    7.8876   12.6912 O   0  0  0  0  0  0 
   13.5282    9.8228   11.9166 N   0  0  0  0  0  0 
   14.4028   10.7045   12.7455 C   0  0  0  0  0  0 
   15.4469   10.4996   12.4717 H   0  0  0  0  0  0 
   14.2055   10.4971   13.7977 H   0  0  0  0  0  0 
   14.0416   12.1592   12.4021 C   0  0  0  0  0  0 
   14.1063   12.7577   13.3292 H   0  0  0  0  0  0 
   14.7711   12.5397   11.6524 H   0  0  0  0  0  0 
   12.6506   12.1681   11.8333 C   0  0  0  0  0  0 
   11.9555   11.6398   12.5218 H   0  0  0  0  0  0 
   12.1001   13.5747   11.7090 C   0  0  0  0  0  0 
   12.5635   14.4825   12.4017 O   0  0  0  0  0  0 
   10.7254   13.5547   11.5784 N   0  0  0  0  0  0 
   10.3526   13.5568   12.4529 H   0  0  0  0  0  0 
   10.4718   14.1932   10.9324 H   0  0  0  0  0  0 
   12.6524   11.5242   10.4548 C   0  0  0  0  0  0 
   11.6260   11.3499   10.0992 H   0  0  0  0  0  0 
   13.1698   12.2254    9.7422 H   0  0  0  0  0  0 
   13.4442   10.2259   10.5205 C   0  0  0  0  0  0 
   14.5016   10.4554   10.1718 H   0  0  0  0  0  0 
   13.0505    9.4447    9.8732 H   0  0  0  0  0  0 
   10.3027    9.2082   14.4030 C   0  0  0  0  0  0 
   10.5467    9.9795   15.2438 H   0  0  0  0  0  0 
    8.7856    9.1499   14.1704 C   0  0  0  0  0  0 
    8.1867    9.8630   14.8687 H   0  0  0  0  0  0 
  1  2  1  0
  2  3  1  0
  2 34  2  0
  3  4  4  0
  3  5  2  0
  5  6  4  0
  5  7  1  0
  7  8  1  0
  7 32  2  0
  8  9  1  0
  8 10  1  0
 10 11  2  0
 10 12  1  0
 12 13  1  0
 12 29  1  0
 13 14  1  0
 13 15  1  0
 13 16  1  0
 16 17  1  0
 16 18  1  0
 16 19  1  0
 19 20  1  0
 19 21  1  0
 19 26  1  0
 21 22  2  0
 21 23  1  0
 23 24  1  0
 23 25  1  0
 26 27  1  0
 26 28  1  0
 26 29  1  0
 29 30  1  0
 29 31  1  0
 32 33  4  0
 32 34  1  0
 34 35  1  0
M  END
>  <name>


$$$$

 SMI23D  v 9.10   1.00000     0.00000

 38 38  0  0  0  0              1 V2000
   15.1907   13.0922   21.1211 H   0  0  0  0  0  0 
   15.8917   13.8322   20.6910 C   0  0  0  0  0  0 
   15.3718   14.6981   20.2731 H   0  0  0  0  0  0 
   16.8563   14.4545   22.0756 Cl  0  0  0  0  0  0 
   16.7795   13.1778   19.6939 C   0  0  0  0  0  0 
   17.9268   12.8320   20.0155 O   0  0  0  0  0  0 
   16.4211   13.0908   18.4002 N   0  0  0  0  0  0 
   15.0365   13.0615   17.9732 C   0  0  0  0  0  0 
   14.9043   12.2308   17.2430 H   0  0  0  0  0  0 
   14.3290   12.9971   18.7841 H   0  0  0  0  0  0 
   14.8452   14.3921   17.1955 C   0  0  0  0  0  0 
   13.7624   14.5299   17.0082 H   0  0  0  0  0  0 
   15.2360   15.1966   17.8378 H   0  0  0  0  0  0 
   15.6041   14.2709   15.8993 C   0  0  0  0  0  0 
   14.9334   13.6636   15.1928 H   0  0  0  0  0  0 
   15.7695   15.6246   15.2650 C   0  0  0  0  0  0 
   15.6930   16.6663   15.9047 O   0  0  0  0  0  0 
   15.3329   15.7194   13.9293 N   0  0  0  0  0  0 
   13.9585   16.0416   13.7259 C   0  0  0  0  0  0 
   13.8293   16.9607   13.1216 H   0  0  0  0  0  0 
   13.4427   16.2320   14.7222 H   0  0  0  0  0  0 
   13.4136   15.1867   13.2554 H   0  0  0  0  0  0 
   16.3928   16.0290   12.9776 C   0  0  0  0  0  0 
   17.2778   15.3495   13.3091 H   0  0  0  0  0  0 
   16.8632   17.4400   13.2170 C   0  0  0  0  0  0 
   16.0167   18.1509   13.2406 H   0  0  0  0  0  0 
   17.6403   17.7705   12.5044 H   0  0  0  0  0  0 
   17.3645   17.4687   14.2467 H   0  0  0  0  0  0 
   16.0638   15.6820   11.5798 C   0  0  0  0  0  0 
   16.5086   16.3698   10.8144 H   0  0  0  0  0  0 
   16.4760   14.6396   11.3298 H   0  0  0  0  0  0 
   14.9674   15.6213   11.3691 H   0  0  0  0  0  0 
   16.9268   13.6001   16.0150 C   0  0  0  0  0  0 
   16.9316   12.6491   15.3847 H   0  0  0  0  0  0 
   17.7129   14.2720   15.5127 H   0  0  0  0  0  0 
   17.4415   13.2685   17.3849 C   0  0  0  0  0  0 
   18.0254   12.2974   17.3307 H   0  0  0  0  0  0 
   18.1550   14.0581   17.7336 H   0  0  0  0  0  0 
  1  2  1  0
  2  3  1  0
  2  4  1  0
  2  5  1  0
  5  6  2  0
  5  7  1  0
  7  8  1  0
  7 36  1  0
  8  9  1  0
  8 10  1  0
  8 11  1  0
 11 12  1  0
 11 13  1  0
 11 14  1  0
 14 15  1  0
 14 16  1  0
 14 33  1  0
 16 17  2  0
 16 18  1  0
 18 19  1  0
 18 23  1  0
 19 20  1  0
 19 21  1  0
 19 22  1  0
 23 24  1  0
 23 25  1  0
 23 29  1  0
 25 26  1  0
 25 27  1  0
 25 28  1  0
 29 30  1  0
 29 31  1  0
 29 32  1  0
 33 34  1  0
 33 35  1  0
 33 36  1  0
 36 37  1  0
 36 38  1  0
M  END
>  <name>


$$$$

 SMI23D  v 9.10   1.00000     0.00000

 24 25  0  0  0  0              1 V2000
    5.1548    8.4330    8.7414 H   0  0  0  0  0  0 
    5.9146    8.7596    9.5552 C   0  0  0  0  0  0 
    6.9178    9.5639    8.7317 C   0  0  0  0  0  0 
    6.9878   10.3893    9.4401 H   0  0  0  0  0  0 
    8.3102    9.2261    8.3624 C   0  0  0  0  0  0 
    8.3383    8.9633    7.2968 H   0  0  0  0  0  0 
    8.5531    7.8683    8.9862 C   0  0  0  0  0  0 
    7.8618    7.2433   10.0114 C   0  0  0  0  0  0 
    8.5533    7.4739   10.9827 N   0  0  0  0  0  0 
    9.6903    7.8585   10.7713 C   0  0  0  0  0  0 
   10.4243    8.9054   11.4870 C   0  0  0  0  0  0 
   11.4218    9.0515   10.9376 H   0  0  0  0  0  0 
   10.6758    8.5952   12.5259 H   0  0  0  0  0  0 
    9.6141   10.4811   11.5101 S   0  0  0  0  0  0 
    8.2602   10.3265   11.8886 O   0  0  0  0  0  0 
    9.9040   11.1730   10.2946 O   0  0  0  0  0  0 
   10.4785   11.3288   12.8275 C   0  0  0  0  0  0 
   11.5662   11.3513   12.5824 H   0  0  0  0  0  0 
   10.3292   10.7654   13.7744 H   0  0  0  0  0  0 
   10.0936   12.3587   12.9283 H   0  0  0  0  0  0 
    9.7318    7.9470    9.3848 N   0  0  0  0  0  0 
   10.3047    7.2128    9.0858 H   0  0  0  0  0  0 
    6.5764    7.7240   10.3632 C   0  0  0  0  0  0 
    6.4739    7.9132   11.4714 H   0  0  0  0  0  0 
  1  2  1  0
  2  3  1  0
  2 23  2  0
  3  4  4  0
  3  5  2  0
  5  6  4  0
  5  7  1  0
  7  8  3  0
  7 21  1  0
  8  9  1  0
  8 23  1  0
  9 10  2  0
 10 11  1  0
 10 21  1  0
 11 12  1  0
 11 13  1  0
 11 14  1  0
 14 15  2  0
 14 16  2  0
 14 17  1  0
 17 18  1  0
 17 19  1  0
 17 20  1  0
 21 22  1  0
 23 24  1  0
M  END
>  <name>


$$$$

 SMI23D  v 9.10   1.00000     0.00000

 27 28  0  0  0  0              1 V2000
    8.2550   14.1744    9.1743 H   0  0  0  0  0  0 
    8.8975   14.7794    9.8802 C   0  0  0  0  0  0 
    8.5496   14.1526   11.1957 N   0  0  0  0  0  0 
    9.7115   14.0244   11.8203 C   0  0  0  0  0  0 
    9.5932   14.1913   12.9237 H   0  0  0  0  0  0 
   11.1649   13.6580   11.4727 C   0  0  0  0  0  0 
   11.3177   12.2815   11.7843 N   0  0  0  0  0  0 
   10.8809   12.0912   12.5556 H   0  0  0  0  0  0 
   10.8198   11.5874   10.7368 C   0  0  0  0  0  0 
    9.6966   11.1571   10.7295 O   0  0  0  0  0  0 
   11.7955   11.1795    9.9786 N   0  0  0  0  0  0 
   11.5862   11.0080    9.0846 H   0  0  0  0  0  0 
   12.3823   10.0367   10.5412 C   0  0  0  0  0  0 
   13.4476   10.7135   11.3183 C   0  0  0  0  0  0 
   13.2893   10.2376   12.2657 H   0  0  0  0  0  0 
   14.9306   10.7830   11.0638 C   0  0  0  0  0  0 
   15.2088   11.7652   10.7795 H   0  0  0  0  0  0 
   15.1597    9.8198    9.9532 C   0  0  0  0  0  0 
   15.5900   10.5149    9.1634 H   0  0  0  0  0  0 
   14.4358    8.8238    9.2600 C   0  0  0  0  0  0 
   14.8654    7.7924    9.5183 H   0  0  0  0  0  0 
   12.9709    8.9523    9.7156 C   0  0  0  0  0  0 
   12.5389    7.9764   10.1101 H   0  0  0  0  0  0 
   11.5045   14.2486   10.1868 C   0  0  0  0  0  0 
   12.4263   14.6509    9.7895 H   0  0  0  0  0  0 
   10.2786   15.0500    9.6783 C   0  0  0  0  0  0 
   10.5527   16.1870    9.6369 H   0  0  0  0  0  0 
  1  2  1  0
  2  3  1  0
  2 26  2  0
  3  4  2  0
  4  5  4  0
  4  6  1  0
  6  7  1  0
  6 24  2  0
  7  8  1  0
  7  9  1  0
  9 10  2  0
  9 11  1  0
 11 12  1  0
 11 13  1  0
 13 14  1  0
 13 22  2  0
 14 15  4  0
 14 16  2  0
 16 17  4  0
 16 18  1  0
 18 19  4  0
 18 20  2  0
 20 21  4  0
 20 22  1  0
 22 23  1  0
 24 25  4  0
 24 26  1  0
 26 27  1  0
M  END
>  <name>


$$$$

 SMI23D  v 9.10   1.00000     0.00000

 31 32  0  0  0  0              1 V2000
    7.2775   14.9903   11.6865 H   0  0  0  0  0  0 
    8.2366   14.8351   12.2699 C   0  0  0  0  0  0 
    8.2401   13.0099   12.4965 S   0  0  0  0  0  0 
    9.0971   13.1202   14.0733 C   0  0  0  0  0  0 
   10.5102   12.0675   14.0955 S   0  0  0  0  0  0 
   10.0602   10.6996   14.2279 O   0  0  0  0  0  0 
   11.2641   12.5192   15.2991 O   0  0  0  0  0  0 
   11.5034   12.1952   12.8264 N   0  0  0  0  0  0 
   12.6706   11.4707   12.9954 C   0  0  0  0  0  0 
   12.7248   10.9893   14.0156 H   0  0  0  0  0  0 
   13.5642   12.1579   12.9168 H   0  0  0  0  0  0 
   12.8509   10.3445   11.9795 C   0  0  0  0  0  0 
   11.9907    9.6570   12.0219 H   0  0  0  0  0  0 
   13.8008    9.8279   12.1181 H   0  0  0  0  0  0 
   12.8452   11.0051   10.6582 N   0  0  0  0  0  0 
   14.0345   11.4178   10.1606 C   0  0  0  0  0  0 
   14.9634   11.6776   10.9081 O   0  0  0  0  0  0 
   14.2507   11.2895    8.6790 C   0  0  0  0  0  0 
   14.7696   10.3365    8.4741 H   0  0  0  0  0  0 
   13.2909   11.3480    8.1505 H   0  0  0  0  0  0 
   15.2905   12.6074    8.0904 Cl  0  0  0  0  0  0 
   11.6504   11.7605   10.3593 C   0  0  0  0  0  0 
   11.9256   12.6680    9.7718 H   0  0  0  0  0  0 
   11.0081   11.1117    9.6896 H   0  0  0  0  0  0 
   10.8633   12.1359   11.5915 C   0  0  0  0  0  0 
   10.4295   13.1800   11.3726 H   0  0  0  0  0  0 
    9.9704   11.4432   11.6624 H   0  0  0  0  0  0 
    9.1195   14.4087   14.5093 C   0  0  0  0  0  0 
    8.7428   14.8173   15.5433 H   0  0  0  0  0  0 
    8.6133   15.4202   13.4755 C   0  0  0  0  0  0 
    9.3251   16.3137   13.5495 H   0  0  0  0  0  0 
  1  2  1  0
  2  3  1  0
  2 30  2  0
  3  4  1  0
  4  5  1  0
  4 28  2  0
  5  6  2  0
  5  7  2  0
  5  8  1  0
  8  9  1  0
  8 25  1  0
  9 10  1  0
  9 11  1  0
  9 12  1  0
 12 13  1  0
 12 14  1  0
 12 15  1  0
 15 16  1  0
 15 22  1  0
 16 17  2  0
 16 18  1  0
 18 19  1  0
 18 20  1  0
 18 21  1  0
 22 23  1  0
 22 24  1  0
 22 25  1  0
 25 26  1  0
 25 27  1  0
 28 29  4  0
 28 30  1  0
 30 31  1  0
M  END
>  <name>


$$$$

 SMI23D  v 9.10   1.00000     0.00000

 31 32  0  0  0  0              1 V2000
    9.1930   14.0591    9.8731 H   0  0  0  0  0  0 
    9.4086   13.9751   10.9886 C   0  0  0  0  0  0 
   10.3342   15.1423   11.1491 N   0  0  0  0  0  0 
   11.4269   14.7797   11.6954 C   0  0  0  0  0  0 
   11.6627   15.4840   12.5638 H   0  0  0  0  0  0 
   12.0723   13.5368   11.7738 C   0  0  0  0  0  0 
   12.7560   13.6767   12.6015 H   0  0  0  0  0  0 
   11.4079   12.2756   11.7906 C   0  0  0  0  0  0 
   11.8385   11.3275   10.6859 C   0  0  0  0  0  0 
   11.0146   10.9723   10.0675 H   0  0  0  0  0  0 
   12.6073   11.8462   10.0587 H   0  0  0  0  0  0 
   12.5174   10.1339   11.3782 C   0  0  0  0  0  0 
   12.2032    9.2043   10.8538 H   0  0  0  0  0  0 
   13.6107   10.2552   11.3169 H   0  0  0  0  0  0 
   12.0874   10.0704   12.7636 N   0  0  0  0  0  0 
   11.9508    9.1910   13.1538 H   0  0  0  0  0  0 
   12.6044   10.8759   13.7060 C   0  0  0  0  0  0 
   13.6802   11.4284   13.5201 O   0  0  0  0  0  0 
   11.5045   11.6377   14.3038 C   0  0  0  0  0  0 
   11.3048   10.6868   15.4853 C   0  0  0  0  0  0 
   10.2270   10.5975   15.3576 H   0  0  0  0  0  0 
   11.5701   10.9578   16.9365 C   0  0  0  0  0  0 
   12.3845   10.3181   17.2345 H   0  0  0  0  0  0 
   11.9772   12.3841   17.0172 C   0  0  0  0  0  0 
   12.9660   12.2964   17.5472 H   0  0  0  0  0  0 
   12.0426   13.5125   16.1659 C   0  0  0  0  0  0 
   11.2628   14.2931   16.4881 H   0  0  0  0  0  0 
   11.7678   12.9988   14.7622 C   0  0  0  0  0  0 
   10.7859   13.7947   14.2336 F   0  0  0  0  0  0 
    9.9691   12.7965   11.5677 C   0  0  0  0  0  0 
    9.3405   12.2458   12.3618 H   0  0  0  0  0  0 
  1  2  1  0
  2  3  1  0
  2 30  2  0
  3  4  2  0
  4  5  4  0
  4  6  1  0
  6  7  4  0
  6  8  2  0
  8  9  1  0
  8 30  1  0
  9 10  1  0
  9 11  1  0
  9 12  1  0
 12 13  1  0
 12 14  1  0
 12 15  1  0
 15 16  1  0
 15 17  1  0
 17 18  2  0
 17 19  1  0
 19 20  1  0
 19 28  2  0
 20 21  4  0
 20 22  2  0
 22 23  4  0
 22 24  1  0
 24 25  4  0
 24 26  2  0
 26 27  4  0
 26 28  1  0
 28 29  1  0
 30 31  1  0
M  END
>  <name>


$$$$

 SMI23D  v 9.10   1.00000     0.00000

 31 32  0  0  0  0              1 V2000
    9.4708    8.3946   11.9671 H   0  0  0  0  0  0 
    8.5893    8.9257   11.4383 C   0  0  0  0  0  0 
    9.2094   10.2965   11.1664 C   0  0  0  0  0  0 
    9.0790   10.3245   10.1196 H   0  0  0  0  0  0 
    8.8528   11.6132   11.7331 C   0  0  0  0  0  0 
    9.7348   11.8031   12.7321 N   0  0  0  0  0  0 
    9.4592   11.3746   13.5374 H   0  0  0  0  0  0 
   10.9794   11.3488   12.4035 C   0  0  0  0  0  0 
   11.1639   10.1142   12.6558 O   0  0  0  0  0  0 
   12.1334   12.2615   12.7142 C   0  0  0  0  0  0 
   12.0635   12.6179   13.7428 H   0  0  0  0  0  0 
   13.3556   11.5613   12.5737 O   0  0  0  0  0  0 
   13.7942   11.6416   11.2439 C   0  0  0  0  0  0 
   14.8889   11.6937   11.2442 H   0  0  0  0  0  0 
   13.4190   10.7681   10.6989 H   0  0  0  0  0  0 
   13.2038   12.9271   10.6480 C   0  0  0  0  0  0 
   12.6596   12.7074    9.7232 H   0  0  0  0  0  0 
   13.9885   13.6790   10.5046 H   0  0  0  0  0  0 
   12.2065   13.4187   11.7223 C   0  0  0  0  0  0 
   12.6626   14.2975   12.2270 H   0  0  0  0  0  0 
   11.2461   13.6483   11.2800 H   0  0  0  0  0  0 
    7.5850   11.3601   12.5032 C   0  0  0  0  0  0 
    6.9767   12.0975   11.9527 H   0  0  0  0  0  0 
    6.7795   10.2924   12.9201 C   0  0  0  0  0  0 
    6.9356   10.0644   14.0216 H   0  0  0  0  0  0 
    7.3228    9.0341   12.1540 C   0  0  0  0  0  0 
    6.1778    8.5422   11.4247 C   0  0  0  0  0  0 
    5.7248    9.0782   10.4632 O   0  0  0  0  0  0 
    5.5779    7.5985   12.1417 N   0  0  0  0  0  0 
    6.2097    7.1216   12.6819 H   0  0  0  0  0  0 
    4.7848    7.9372   12.5605 H   0  0  0  0  0  0 
  1  2  1  0
  2  3  1  0
  2 26  2  0
  3  4  4  0
  3  5  2  0
  5  6  1  0
  5 22  1  0
  6  7  1  0
  6  8  1  0
  8  9  2  0
  8 10  1  0
 10 11  1  0
 10 12  1  0
 10 19  1  0
 12 13  1  0
 13 14  1  0
 13 15  1  0
 13 16  1  0
 16 17  1  0
 16 18  1  0
 16 19  1  0
 19 20  1  0
 19 21  1  0
 22 23  4  0
 22 24  2  0
 24 25  4  0
 24 26  1  0
 26 27  1  0
 27 28  2  0
 27 29  1  0
 29 30  1  0
 29 31  1  0
M  END
>  <name>


$$$$

 SMI23D  v 9.10   1.00000     0.00000

 31 32  0  0  0  0              1 V2000
    8.3924   12.3677   11.0192 H   0  0  0  0  0  0 
    8.3734   13.2643   11.7864 C   0  0  0  0  0  0 
    9.6954   13.9736   11.5056 C   0  0  0  0  0  0 
    9.9330   13.7591   10.5733 H   0  0  0  0  0  0 
   10.8009   14.1271   12.5593 C   0  0  0  0  0  0 
   10.8291   15.3174   12.7619 H   0  0  0  0  0  0 
   10.6197   13.4062   13.5537 C   0  0  0  0  0  0 
   11.7047   12.3227   14.1515 C   0  0  0  0  0  0 
   11.5926   11.0936   13.2220 C   0  0  0  0  0  0 
   10.5827   10.6465   13.4304 H   0  0  0  0  0  0 
   12.5935   10.1579   13.7160 N   0  0  0  0  0  0 
   12.4457    9.2234   13.4490 H   0  0  0  0  0  0 
   13.9106   10.4137   13.5917 C   0  0  0  0  0  0 
   14.3458   10.8816   12.5405 O   0  0  0  0  0  0 
   14.8436    9.6798   14.5192 C   0  0  0  0  0  0 
   14.3082    8.8903   15.0601 H   0  0  0  0  0  0 
   15.3001   10.4052   15.2172 H   0  0  0  0  0  0 
   16.1594    8.9194   13.5941 Cl  0  0  0  0  0  0 
   11.7774   11.3920   11.8076 C   0  0  0  0  0  0 
   10.7897   11.5559   11.2918 H   0  0  0  0  0  0 
   12.4690   12.2178   11.5733 H   0  0  0  0  0  0 
   12.2044   10.4510   11.2880 H   0  0  0  0  0  0 
   11.4082   12.1603   15.6100 C   0  0  0  0  0  0 
   12.2199   12.3401   16.3346 H   0  0  0  0  0  0 
   10.1018   12.3783   16.2398 C   0  0  0  0  0  0 
   10.4617   13.1265   17.0731 H   0  0  0  0  0  0 
    9.0250   13.1691   15.5613 C   0  0  0  0  0  0 
    8.0424   12.4863   15.7888 H   0  0  0  0  0  0 
    9.2877   12.9502   14.2036 C   0  0  0  0  0  0 
    8.1989   12.8918   13.2052 C   0  0  0  0  0  0 
    7.2985   13.5357   13.6316 H   0  0  0  0  0  0 
  1  2  1  0
  2  3  1  0
  2 30  2  0
  3  4  4  0
  3  5  2  0
  5  6  4  0
  5  7  1  0
  7  8  1  0
  7 29  2  0
  8  9  1  0
  8 23  2  0
  9 10  1  0
  9 11  1  0
  9 19  1  0
 11 12  1  0
 11 13  1  0
 13 14  2  0
 13 15  1  0
 15 16  1  0
 15 17  1  0
 15 18  1  0
 19 20  1  0
 19 21  1  0
 19 22  1  0
 23 24  4  0
 23 25  1  0
 25 26  4  0
 25 27  2  0
 27 28  4  0
 27 29  1  0
 29 30  1  0
 30 31  1  0
M  END
>  <name>


$$$$

 SMI23D  v 9.10   1.00000     0.00000

 27 28  0  0  0  0              1 V2000
    8.2550   14.1744    9.1743 H   0  0  0  0  0  0 
    8.8975   14.7794    9.8802 C   0  0  0  0  0  0 
    8.5496   14.1526   11.1957 N   0  0  0  0  0  0 
    9.7115   14.0244   11.8203 C   0  0  0  0  0  0 
    9.5932   14.1913   12.9237 H   0  0  0  0  0  0 
   11.1649   13.6580   11.4727 C   0  0  0  0  0  0 
   11.3177   12.2815   11.7843 N   0  0  0  0  0  0 
   10.8809   12.0912   12.5556 H   0  0  0  0  0  0 
   10.8198   11.5874   10.7368 C   0  0  0  0  0  0 
    9.6966   11.1571   10.7295 O   0  0  0  0  0  0 
   11.7955   11.1795    9.9786 N   0  0  0  0  0  0 
   11.5862   11.0080    9.0846 H   0  0  0  0  0  0 
   12.3823   10.0367   10.5412 C   0  0  0  0  0  0 
   13.4476   10.7135   11.3183 C   0  0  0  0  0  0 
   13.2893   10.2376   12.2657 H   0  0  0  0  0  0 
   14.9306   10.7830   11.0638 C   0  0  0  0  0  0 
   15.2088   11.7652   10.7795 H   0  0  0  0  0  0 
   15.1597    9.8198    9.9532 C   0  0  0  0  0  0 
   15.5900   10.5149    9.1634 H   0  0  0  0  0  0 
   14.4358    8.8238    9.2600 C   0  0  0  0  0  0 
   14.8654    7.7924    9.5183 H   0  0  0  0  0  0 
   12.9709    8.9523    9.7156 C   0  0  0  0  0  0 
   12.5389    7.9764   10.1101 H   0  0  0  0  0  0 
   11.5045   14.2486   10.1868 C   0  0  0  0  0  0 
   12.4263   14.6509    9.7895 H   0  0  0  0  0  0 
   10.2786   15.0500    9.6783 C   0  0  0  0  0  0 
   10.5527   16.1870    9.6369 H   0  0  0  0  0  0 
  1  2  1  0
  2  3  1  0
  2 26  2  0
  3  4  2  0
  4  5  4  0
  4  6  1  0
  6  7  1  0
  6 24  2  0
  7  8  1  0
  7  9  1  0
  9 10  2  0
  9 11  1  0
 11 12  1  0
 11 13  1  0
 13 14  1  0
 13 22  2  0
 14 15  4  0
 14 16  2  0
 16 17  4  0
 16 18  1  0
 18 19  4  0
 18 20  2  0
 20 21  4  0
 20 22  1  0
 22 23  1  0
 24 25  4  0
 24 26  1  0
 26 27  1  0
M  END
>  <name>


$$$$

 SMI23D  v 9.10   1.00000     0.00000

 40 41  0  0  0  0              1 V2000
   12.2708   17.5587   13.8067 H   0  0  0  0  0  0 
   12.4503   16.4513   14.0524 C   0  0  0  0  0  0 
   13.7375   16.4632   14.8435 C   0  0  0  0  0  0 
   14.2400   15.6977   14.2346 H   0  0  0  0  0  0 
   13.8885   16.1667   16.2485 C   0  0  0  0  0  0 
   14.3803   17.3149   17.0267 C   0  0  0  0  0  0 
   14.5512   18.1969   16.3673 H   0  0  0  0  0  0 
   13.7283   17.5797   17.8685 H   0  0  0  0  0  0 
   15.3969   17.0161   17.4491 H   0  0  0  0  0  0 
   12.6017   15.4570   16.8419 C   0  0  0  0  0  0 
   13.4518   14.2008   17.6768 S   0  0  0  0  0  0 
   14.2389   13.4686   16.6407 O   0  0  0  0  0  0 
   14.4335   14.9600   18.5437 O   0  0  0  0  0  0 
   12.7784   13.1319   18.6178 N   0  0  0  0  0  0 
   11.6510   13.4306   19.3883 C   0  0  0  0  0  0 
   11.9416   13.9603   20.3426 H   0  0  0  0  0  0 
   10.9450   14.1006   18.8531 H   0  0  0  0  0  0 
   10.9111   12.1408   19.7719 C   0  0  0  0  0  0 
   10.7022   12.1558   20.8730 H   0  0  0  0  0  0 
    9.9922   12.0058   19.2166 H   0  0  0  0  0  0 
   11.8349   11.0261   19.5250 N   0  0  0  0  0  0 
   11.7580   10.3162   18.3743 C   0  0  0  0  0  0 
   12.1850    9.1415   18.4326 O   0  0  0  0  0  0 
   11.9065   11.0393   17.0675 C   0  0  0  0  0  0 
   11.5769   10.3368   16.2626 H   0  0  0  0  0  0 
   12.9623   11.3141   16.9122 H   0  0  0  0  0  0 
   10.9094   12.4842   16.9583 Cl  0  0  0  0  0  0 
   13.1773   11.2255   20.0898 C   0  0  0  0  0  0 
   13.7969   10.3415   19.9165 H   0  0  0  0  0  0 
   13.0787   11.4470   21.1712 H   0  0  0  0  0  0 
   13.7719   12.4413   19.3805 C   0  0  0  0  0  0 
   14.5653   12.0682   18.6735 H   0  0  0  0  0  0 
   14.2587   13.0817   20.1403 H   0  0  0  0  0  0 
   11.3799   15.2271   16.1722 C   0  0  0  0  0  0 
   10.4464   15.8177   16.5228 H   0  0  0  0  0  0 
   11.4202   15.5899   14.6177 C   0  0  0  0  0  0 
   10.9656   14.3929   13.7902 C   0  0  0  0  0  0 
   10.3460   14.8197   12.9477 H   0  0  0  0  0  0 
   10.3866   13.6889   14.3626 H   0  0  0  0  0  0 
   11.8748   13.9331   13.3401 H   0  0  0  0  0  0 
  1  2  1  0
  2  3  1  0
  2 36  2  0
  3  4  4  0
  3  5  2  0
  5  6  1  0
  5 10  1  0
  6  7  1  0
  6  8  1  0
  6  9  1  0
 10 11  1  0
 10 34  2  0
 11 12  2  0
 11 13  2  0
 11 14  1  0
 14 15  1  0
 14 31  1  0
 15 16  1  0
 15 17  1  0
 15 18  1  0
 18 19  1  0
 18 20  1  0
 18 21  1  0
 21 22  1  0
 21 28  1  0
 22 23  2  0
 22 24  1  0
 24 25  1  0
 24 26  1  0
 24 27  1  0
 28 29  1  0
 28 30  1  0
 28 31  1  0
 31 32  1  0
 31 33  1  0
 34 35  4  0
 34 36  1  0
 36 37  1  0
 37 38  1  0
 37 39  1  0
 37 40  1  0
M  END
>  <name>


$$$$

 SMI23D  v 9.10   1.00000     0.00000

 30 31  0  0  0  0              1 V2000
    9.3922   12.2232   12.1621 H   0  0  0  0  0  0 
   10.4846   12.4602   11.8096 C   0  0  0  0  0  0 
   11.3888   11.4223   11.4670 C   0  0  0  0  0  0 
   12.1119   10.8441   12.0773 H   0  0  0  0  0  0 
   12.5093   12.3254   10.2665 S   0  0  0  0  0  0 
   12.5171   11.6088    9.0842 O   0  0  0  0  0  0 
   13.6700   12.6568   10.9747 O   0  0  0  0  0  0 
   11.5444   13.8640   10.0449 C   0  0  0  0  0  0 
   10.9899   13.7024    9.0268 H   0  0  0  0  0  0 
   12.1594   14.7019    9.8829 H   0  0  0  0  0  0 
   10.5360   13.8257   11.1003 C   0  0  0  0  0  0 
    9.5155   14.0178   10.6567 H   0  0  0  0  0  0 
   10.7625   14.8025   12.2654 N   0  0  0  0  0  0 
   11.7811   15.6484   12.1233 C   0  0  0  0  0  0 
   11.6188   16.7792   11.6901 O   0  0  0  0  0  0 
   13.1612   15.1686   12.4887 C   0  0  0  0  0  0 
   13.1125   14.1673   12.9340 H   0  0  0  0  0  0 
   13.6167   15.8961   13.2041 H   0  0  0  0  0  0 
   14.2696   15.1000   11.0980 Cl  0  0  0  0  0  0 
    9.6595   15.1379   12.7660 C   0  0  0  0  0  0 
    9.8488   14.9785   14.2675 C   0  0  0  0  0  0 
   10.9220   15.0728   14.3420 H   0  0  0  0  0  0 
    9.3256   15.8872   15.2947 C   0  0  0  0  0  0 
    8.5033   15.3292   15.8779 H   0  0  0  0  0  0 
    8.5587   16.9530   14.5656 C   0  0  0  0  0  0 
    9.3442   17.7307   14.8271 H   0  0  0  0  0  0 
    8.1344   17.1990   13.2123 C   0  0  0  0  0  0 
    7.0187   17.3648   13.2389 H   0  0  0  0  0  0 
    8.5203   15.9550   12.4054 C   0  0  0  0  0  0 
    7.5833   15.3778   12.0152 H   0  0  0  0  0  0 
  1  2  1  0
  2  3  2  0
  2 11  1  0
  3  4  1  0
  3  5  1  0
  5  6  2  0
  5  7  2  0
  5  8  1  0
  8  9  1  0
  8 10  1  0
  8 11  1  0
 11 12  1  0
 11 13  1  0
 13 14  1  0
 13 20  1  0
 14 15  2  0
 14 16  1  0
 16 17  1  0
 16 18  1  0
 16 19  1  0
 20 21  1  0
 20 29  2  0
 21 22  4  0
 21 23  2  0
 23 24  4  0
 23 25  1  0
 25 26  4  0
 25 27  2  0
 27 28  4  0
 27 29  1  0
 29 30  1  0
M  END
>  <name>


$$$$

 SMI23D  v 9.10   1.00000     0.00000

 17 17  0  0  0  0              1 V2000
    5.5118    9.7234    6.2614 H   0  0  0  0  0  0 
    6.0613    8.8300    5.7940 C   0  0  0  0  0  0 
    4.9626    7.7896    5.6276 C   0  0  0  0  0  0 
    4.0989    8.2200    6.1368 H   0  0  0  0  0  0 
    5.0185    6.3738    6.0612 C   0  0  0  0  0  0 
    5.3278    5.4296    4.6569 S   0  0  0  0  0  0 
    5.2760    6.2729    3.4534 O   0  0  0  0  0  0 
    4.2814    4.3923    4.6098 O   0  0  0  0  0  0 
    6.7657    4.6617    4.6481 N   0  0  0  0  0  0 
    7.5173    5.3408    4.5365 H   0  0  0  0  0  0 
    6.8145    4.1514    3.7410 H   0  0  0  0  0  0 
    6.2213    6.2418    6.9210 C   0  0  0  0  0  0 
    5.5899    6.1153    7.8630 H   0  0  0  0  0  0 
    7.3658    7.0063    7.2223 C   0  0  0  0  0  0 
    8.3001    6.4851    7.0498 H   0  0  0  0  0  0 
    7.2508    8.3328    6.4757 C   0  0  0  0  0  0 
    8.7556    8.3933    5.2858 Br  0  0  0  0  0  0 
  1  2  1  0
  2  3  1  0
  2 16  2  0
  3  4  4  0
  3  5  2  0
  5  6  1  0
  5 12  1  0
  6  7  2  0
  6  8  2  0
  6  9  1  0
  9 10  1  0
  9 11  1  0
 12 13  4  0
 12 14  2  0
 14 15  4  0
 14 16  1  0
 16 17  1  0
M  END
>  <name>


$$$$

 SMI23D  v 9.10   1.00000     0.00000

 28 27  0  0  0  0              1 V2000
    9.7020   10.3631    7.8857 H   0  0  0  0  0  0 
   10.4834   10.1631    8.3665 O   0  0  0  0  0  0 
   10.1221    9.0040    9.1678 C   0  0  0  0  0  0 
    9.4215    8.4554    8.4313 H   0  0  0  0  0  0 
   11.3377    8.2097    9.3619 C   0  0  0  0  0  0 
   12.2527    8.7786    8.9796 H   0  0  0  0  0  0 
   11.5613    7.8583   10.3770 H   0  0  0  0  0  0 
   11.3099    7.2634    8.7012 H   0  0  0  0  0  0 
    9.3348    9.5082   10.3068 C   0  0  0  0  0  0 
    8.2771    9.0519   10.2695 H   0  0  0  0  0  0 
    9.8660    9.1185   11.6782 C   0  0  0  0  0  0 
   10.9529    9.6161   12.0326 O   0  0  0  0  0  0 
    8.9321    8.9649   12.6300 N   0  0  0  0  0  0 
    8.3728    9.7340   12.6717 H   0  0  0  0  0  0 
    8.5675    7.7072   13.2021 C   0  0  0  0  0  0 
    8.2561    6.9847   12.4156 H   0  0  0  0  0  0 
    7.6996    7.8694   13.8974 H   0  0  0  0  0  0 
    9.6823    7.1417   13.9687 C   0  0  0  0  0  0 
   10.6008    6.6881   14.5930 C   0  0  0  0  0  0 
   10.5297    7.1841   16.0391 Br  0  0  0  0  0  0 
    9.1525   10.9302   10.2535 N   0  0  0  0  0  0 
    8.3870   11.3444    9.8894 H   0  0  0  0  0  0 
    9.9646   11.8288   10.8435 C   0  0  0  0  0  0 
    9.4590   12.5849   11.6879 O   0  0  0  0  0  0 
   11.0834   12.3581    9.9665 C   0  0  0  0  0  0 
   10.6547   12.5817    8.9714 H   0  0  0  0  0  0 
   11.8619   11.5780    9.8939 H   0  0  0  0  0  0 
   11.4952   13.2760   10.4257 H   0  0  0  0  0  0 
  1  2  1  0
  2  3  1  0
  3  4  1  0
  3  5  1  0
  3  9  1  0
  5  6  1  0
  5  7  1  0
  5  8  1  0
  9 10  1  0
  9 11  1  0
  9 21  1  0
 11 12  2  0
 11 13  1  0
 13 14  1  0
 13 15  1  0
 15 16  1  0
 15 17  1  0
 15 18  1  0
 18 19  3  0
 19 20  1  0
 21 22  1  0
 21 23  1  0
 23 24  2  0
 23 25  1  0
 25 26  1  0
 25 27  1  0
 25 28  1  0
M  END
>  <name>


$$$$

 SMI23D  v 9.10   1.00000     0.00000

 12 12  0  0  0  0              1 V2000
    4.6277    2.4531    4.0295 H   0  0  0  0  0  0 
    4.2785    3.0537    3.4698 O   0  0  0  0  0  0 
    3.0706    3.5684    3.9044 C   0  0  0  0  0  0 
    3.2031    3.2153    5.3428 N   0  0  0  0  0  0 
    2.9056    4.2364    6.0640 C   0  0  0  0  0  0 
    2.1864    4.0121    6.8998 H   0  0  0  0  0  0 
    2.8164    5.6322    5.7663 C   0  0  0  0  0  0 
    3.7516    5.9891    6.2298 H   0  0  0  0  0  0 
    2.6117    6.1598    4.4473 C   0  0  0  0  0  0 
    1.7447    6.8252    4.3515 H   0  0  0  0  0  0 
    2.4695    4.8391    3.6878 C   0  0  0  0  0  0 
    1.4856    4.8093    3.0573 H   0  0  0  0  0  0 
  1  2  1  0
  2  3  1  0
  3  4  1  0
  3 11  2  0
  4  5  2  0
  5  6  4  0
  5  7  1  0
  7  8  4  0
  7  9  2  0
  9 10  4  0
  9 11  1  0
 11 12  1  0
M  END
>  <name>


$$$$

 SMI23D  v 9.10   1.00000     0.00000

 28 27  0  0  0  0              1 V2000
    6.2700   11.0826   10.2789 H   0  0  0  0  0  0 
    5.9592   11.9825   10.2026 N   0  0  0  0  0  0 
    5.5301   12.3991   10.9425 H   0  0  0  0  0  0 
    6.9988   12.7645    9.7853 C   0  0  0  0  0  0 
    7.0957   12.9723    8.5751 O   0  0  0  0  0  0 
    8.2338   12.6909   10.6387 C   0  0  0  0  0  0 
    8.8144   11.8189   10.1510 H   0  0  0  0  0  0 
    7.9260   12.3591   11.6467 H   0  0  0  0  0  0 
    9.0555   13.8911   10.6323 C   0  0  0  0  0  0 
    9.7639   13.8338    9.6968 H   0  0  0  0  0  0 
    8.3064   15.1918   10.4140 C   0  0  0  0  0  0 
    9.0117   16.1904   10.1428 O   0  0  0  0  0  0 
    7.0445   15.2081   10.0225 N   0  0  0  0  0  0 
    6.9618   15.4122    9.0947 H   0  0  0  0  0  0 
    5.9239   15.2751   10.9200 C   0  0  0  0  0  0 
    6.1267   14.6594   11.8252 H   0  0  0  0  0  0 
    5.7524   16.3334   11.2281 H   0  0  0  0  0  0 
    4.7173   14.7690   10.2529 C   0  0  0  0  0  0 
    3.7350   14.3550    9.7025 C   0  0  0  0  0  0 
    4.1330   13.6549    8.4018 Br  0  0  0  0  0  0 
    9.9460   14.0463   11.7456 N   0  0  0  0  0  0 
   10.4536   14.9001   11.7554 H   0  0  0  0  0  0 
    9.9737   13.4892   12.9335 C   0  0  0  0  0  0 
   10.3248   14.1955   13.9252 O   0  0  0  0  0  0 
   10.0911   12.0006   13.1174 C   0  0  0  0  0  0 
    9.1918   11.6504   13.6703 H   0  0  0  0  0  0 
   10.2137   11.4894   12.1641 H   0  0  0  0  0  0 
   10.9931   11.7976   13.7628 H   0  0  0  0  0  0 
  1  2  1  0
  2  3  1  0
  2  4  1  0
  4  5  2  0
  4  6  1  0
  6  7  1  0
  6  8  1  0
  6  9  1  0
  9 10  1  0
  9 11  1  0
  9 21  1  0
 11 12  2  0
 11 13  1  0
 13 14  1  0
 13 15  1  0
 15 16  1  0
 15 17  1  0
 15 18  1  0
 18 19  3  0
 19 20  1  0
 21 22  1  0
 21 23  1  0
 23 24  2  0
 23 25  1  0
 25 26  1  0
 25 27  1  0
 25 28  1  0
M  END
>  <name>


$$$$

 SMI23D  v 9.10   1.00000     0.00000

 13 13  0  0  0  0              1 V2000
    5.1675    6.0262    4.9918 H   0  0  0  0  0  0 
    4.3521    5.6803    4.7964 O   0  0  0  0  0  0 
    3.9388    4.5125    5.3084 C   0  0  0  0  0  0 
    3.9841    3.6132    4.7964 H   0  0  0  0  0  0 
    4.3153    4.3723    6.8469 C   0  0  0  0  0  0 
    4.1384    3.3589    7.1564 H   0  0  0  0  0  0 
    5.0737    4.9360    7.2118 H   0  0  0  0  0  0 
    2.8888    5.1378    7.1780 S   0  0  0  0  0  0 
    2.2428    4.4554    8.1651 O   0  0  0  0  0  0 
    3.2089    6.5067    7.2118 O   0  0  0  0  0  0 
    2.3691    4.7687    5.7489 C   0  0  0  0  0  0 
    2.0171    5.5566    5.1843 H   0  0  0  0  0  0 
    1.9323    3.7951    5.7366 H   0  0  0  0  0  0 
  1  2  1  0
  2  3  1  0
  3  4  1  0
  3  5  1  0
  3 11  1  0
  5  6  1  0
  5  7  1  0
  5  8  1  0
  8  9  2  0
  8 10  2  0
  8 11  1  0
 11 12  1  0
 11 13  1  0
M  END
>  <name>


$$$$

 SMI23D  v 9.10   1.00000     0.00000

 35 36  0  0  0  0              1 V2000
    7.7691    8.1551   12.3705 H   0  0  0  0  0  0 
    8.1540    9.1451   12.8477 C   0  0  0  0  0  0 
    9.0600    9.6960   11.7688 C   0  0  0  0  0  0 
    8.6799   10.7320   11.8570 H   0  0  0  0  0  0 
   10.5492    9.7580   11.7973 C   0  0  0  0  0  0 
   10.8452    9.1278   10.9417 H   0  0  0  0  0  0 
   11.1247    9.3270   13.1574 C   0  0  0  0  0  0 
   12.1335    8.3444   12.9490 N   0  0  0  0  0  0 
   11.6870    7.5572   12.6773 H   0  0  0  0  0  0 
   13.2271    8.6311   12.3908 C   0  0  0  0  0  0 
   14.2117    7.8876   12.6912 O   0  0  0  0  0  0 
   13.5282    9.8228   11.9166 N   0  0  0  0  0  0 
   14.4028   10.7045   12.7455 C   0  0  0  0  0  0 
   15.4469   10.4996   12.4717 H   0  0  0  0  0  0 
   14.2055   10.4971   13.7977 H   0  0  0  0  0  0 
   14.0416   12.1592   12.4021 C   0  0  0  0  0  0 
   14.1063   12.7577   13.3292 H   0  0  0  0  0  0 
   14.7711   12.5397   11.6524 H   0  0  0  0  0  0 
   12.6506   12.1681   11.8333 C   0  0  0  0  0  0 
   11.9555   11.6398   12.5218 H   0  0  0  0  0  0 
   12.1001   13.5747   11.7090 C   0  0  0  0  0  0 
   12.5635   14.4825   12.4017 O   0  0  0  0  0  0 
   10.7254   13.5547   11.5784 N   0  0  0  0  0  0 
   10.3526   13.5568   12.4529 H   0  0  0  0  0  0 
   10.4718   14.1932   10.9324 H   0  0  0  0  0  0 
   12.6524   11.5242   10.4548 C   0  0  0  0  0  0 
   11.6260   11.3499   10.0992 H   0  0  0  0  0  0 
   13.1698   12.2254    9.7422 H   0  0  0  0  0  0 
   13.4442   10.2259   10.5205 C   0  0  0  0  0  0 
   14.5016   10.4554   10.1718 H   0  0  0  0  0  0 
   13.0505    9.4447    9.8732 H   0  0  0  0  0  0 
   10.3027    9.2082   14.4030 C   0  0  0  0  0  0 
   10.5467    9.9795   15.2438 H   0  0  0  0  0  0 
    8.7856    9.1499   14.1704 C   0  0  0  0  0  0 
    8.1867    9.8630   14.8687 H   0  0  0  0  0  0 
  1  2  1  0
  2  3  1  0
  2 34  2  0
  3  4  4  0
  3  5  2  0
  5  6  4  0
  5  7  1  0
  7  8  1  0
  7 32  2  0
  8  9  1  0
  8 10  1  0
 10 11  2  0
 10 12  1  0
 12 13  1  0
 12 29  1  0
 13 14  1  0
 13 15  1  0
 13 16  1  0
 16 17  1  0
 16 18  1  0
 16 19  1  0
 19 20  1  0
 19 21  1  0
 19 26  1  0
 21 22  2  0
 21 23  1  0
 23 24  1  0
 23 25  1  0
 26 27  1  0
 26 28  1  0
 26 29  1  0
 29 30  1  0
 29 31  1  0
 32 33  4  0
 32 34  1  0
 34 35  1  0
M  END
>  <name>


$$$$

 SMI23D  v 9.10   1.00000     0.00000

 30 32  0  0  0  0              1 V2000
    9.5617   15.6084   10.0395 H   0  0  0  0  0  0 
    9.2108   16.0936   11.0740 C   0  0  0  0  0  0 
   10.3763   16.4526   11.6840 N   0  0  0  0  0  0 
   10.2626   15.9246   12.9384 C   0  0  0  0  0  0 
   11.1801   16.1612   13.3828 H   0  0  0  0  0  0 
    9.5949   14.7305   13.5685 C   0  0  0  0  0  0 
   10.3990   13.6391   13.5987 N   0  0  0  0  0  0 
   11.0993   13.2204   12.3498 C   0  0  0  0  0  0 
   11.4327   14.0901   11.7758 H   0  0  0  0  0  0 
   10.4925   12.5574   11.7490 H   0  0  0  0  0  0 
   12.3573   12.4799   12.8926 C   0  0  0  0  0  0 
   13.1547   13.2826   12.9717 H   0  0  0  0  0  0 
   12.6650   11.6805   12.3077 H   0  0  0  0  0  0 
   11.9625   12.1482   14.3584 C   0  0  0  0  0  0 
   13.1398   11.5647   15.0592 C   0  0  0  0  0  0 
   12.9690   11.4055   16.1368 H   0  0  0  0  0  0 
   14.1173   12.0035   14.8617 H   0  0  0  0  0  0 
   13.2286   10.2101   14.5166 O   0  0  0  0  0  0 
   11.9684    9.7660   14.1258 C   0  0  0  0  0  0 
   11.6772    8.9226   14.7900 H   0  0  0  0  0  0 
   11.9705    9.4372   13.0836 H   0  0  0  0  0  0 
   10.9956   10.9252   14.3393 C   0  0  0  0  0  0 
   10.2032   11.0123   13.6521 H   0  0  0  0  0  0 
   10.6189   10.8130   15.4024 H   0  0  0  0  0  0 
   11.2400   13.3389   14.8310 C   0  0  0  0  0  0 
   11.9034   14.2249   14.9186 H   0  0  0  0  0  0 
   10.5491   13.2724   15.6536 H   0  0  0  0  0  0 
    8.4635   14.3963   12.8901 N   0  0  0  0  0  0 
    8.2495   15.2805   11.8388 C   0  0  0  0  0  0 
    7.2098   15.7310   12.0312 H   0  0  0  0  0  0 
  1  2  1  0
  2  3  1  0
  2 29  2  0
  3  4  2  0
  4  5  4  0
  4  6  1  0
  6  7  1  0
  6 28  2  0
  7  8  1  0
  7 25  1  0
  8  9  1  0
  8 10  1  0
  8 11  1  0
 11 12  1  0
 11 13  1  0
 11 14  1  0
 14 15  1  0
 14 22  1  0
 14 25  1  0
 15 16  1  0
 15 17  1  0
 15 18  1  0
 18 19  1  0
 19 20  1  0
 19 21  1  0
 19 22  1  0
 22 23  1  0
 22 24  1  0
 25 26  1  0
 25 27  1  0
 28 29  1  0
 29 30  1  0
M  END
>  <name>


$$$$

 SMI23D  v 9.10   1.00000     0.00000

 28 29  0  0  0  0              1 V2000
    9.5374   12.1208   13.9382 H   0  0  0  0  0  0 
    9.3331   11.1469   13.3545 C   0  0  0  0  0  0 
    8.8787   11.7074   12.0651 N   0  0  0  0  0  0 
    7.6685   11.1585   11.8645 C   0  0  0  0  0  0 
    7.0954   12.0667   11.0810 O   0  0  0  0  0  0 
    7.4793   11.8178    9.7542 C   0  0  0  0  0  0 
    8.0649   13.1780    9.4471 C   0  0  0  0  0  0 
    8.8863   12.6567    8.8296 H   0  0  0  0  0  0 
    7.4747   14.1741    8.5325 C   0  0  0  0  0  0 
    7.5549   15.1351    8.8462 H   0  0  0  0  0  0 
    6.0354   13.7287    8.0767 C   0  0  0  0  0  0 
    5.1060   14.4218    8.9425 N   0  0  0  0  0  0 
    5.4408   14.1747    9.8186 H   0  0  0  0  0  0 
    4.7796   15.6177    8.7736 C   0  0  0  0  0  0 
    5.5605   16.5802    8.6845 O   0  0  0  0  0  0 
    3.4874   15.9290    9.5948 C   0  0  0  0  0  0 
    3.7653   15.8096   10.6558 H   0  0  0  0  0  0 
    2.7561   15.1751    9.2824 H   0  0  0  0  0  0 
    3.1875   16.9487    9.3635 H   0  0  0  0  0  0 
    5.7748   12.2947    7.8082 C   0  0  0  0  0  0 
    5.5842   11.8989    6.8086 H   0  0  0  0  0  0 
    6.6126   11.2829    8.6934 C   0  0  0  0  0  0 
    7.0470   10.4439    8.1069 H   0  0  0  0  0  0 
    6.6993   10.5604   12.4797 N   0  0  0  0  0  0 
    6.9711    9.8819   13.6200 C   0  0  0  0  0  0 
    6.3186   10.0639   14.4734 H   0  0  0  0  0  0 
    8.4457   10.1577   13.9239 C   0  0  0  0  0  0 
    8.9115    9.1024   14.0672 H   0  0  0  0  0  0 
  1  2  1  0
  2  3  1  0
  2 27  2  0
  3  4  2  0
  4  5  1  0
  4 24  1  0
  5  6  1  0
  6  7  1  0
  6 22  2  0
  7  8  4  0
  7  9  2  0
  9 10  4  0
  9 11  1  0
 11 12  1  0
 11 20  2  0
 12 13  1  0
 12 14  1  0
 14 15  2  0
 14 16  1  0
 16 17  1  0
 16 18  1  0
 16 19  1  0
 20 21  4  0
 20 22  1  0
 22 23  1  0
 24 25  2  0
 25 26  4  0
 25 27  1  0
 27 28  1  0
M  END
>  <name>


$$$$

 SMI23D  v 9.10   1.00000     0.00000

 30 31  0  0  0  0              1 V2000
    7.4419   13.3780   10.5319 H   0  0  0  0  0  0 
    8.3786   13.9265   10.8907 C   0  0  0  0  0  0 
    8.2258   13.9787   12.3458 O   0  0  0  0  0  0 
    9.2833   14.9533   12.5863 C   0  0  0  0  0  0 
    9.8854   14.5854   13.7736 C   0  0  0  0  0  0 
    9.5976   15.1615   14.8220 O   0  0  0  0  0  0 
   10.9518   13.7480   13.6666 N   0  0  0  0  0  0 
   10.7096   12.3692   13.2266 C   0  0  0  0  0  0 
   10.2484   11.8261   14.0867 H   0  0  0  0  0  0 
   10.0454   12.3371   12.3560 H   0  0  0  0  0  0 
   12.0231   11.6971   12.8480 C   0  0  0  0  0  0 
   12.1866   10.8148   13.5115 H   0  0  0  0  0  0 
   12.0091   11.3747   11.7951 H   0  0  0  0  0  0 
   13.1199   12.6349   13.0556 N   0  0  0  0  0  0 
   13.5651   13.3827   12.0207 C   0  0  0  0  0  0 
   14.7667   13.5364   11.8627 O   0  0  0  0  0  0 
   12.5706   14.3108   11.3818 C   0  0  0  0  0  0 
   11.6725   13.7457   11.0899 H   0  0  0  0  0  0 
   12.3239   15.1224   12.0865 H   0  0  0  0  0  0 
   13.2568   15.0437    9.9159 Cl  0  0  0  0  0  0 
   13.2308   13.1899   14.4085 C   0  0  0  0  0  0 
   14.0894   13.8845   14.4397 H   0  0  0  0  0  0 
   13.4238   12.3303   15.1020 H   0  0  0  0  0  0 
   11.9462   13.8709   14.7732 C   0  0  0  0  0  0 
   12.0938   14.9514   14.9554 H   0  0  0  0  0  0 
   11.4793   13.3928   15.6628 H   0  0  0  0  0  0 
    9.6151   15.7949   11.5437 C   0  0  0  0  0  0 
    9.5423   16.8985   11.3616 H   0  0  0  0  0  0 
    8.9332   15.1074   10.2862 C   0  0  0  0  0  0 
    9.7512   15.1027    9.5156 H   0  0  0  0  0  0 
  1  2  1  0
  2  3  1  0
  2 29  2  0
  3  4  1  0
  4  5  1  0
  4 27  2  0
  5  6  2  0
  5  7  1  0
  7  8  1  0
  7 24  1  0
  8  9  1  0
  8 10  1  0
  8 11  1  0
 11 12  1  0
 11 13  1  0
 11 14  1  0
 14 15  1  0
 14 21  1  0
 15 16  2  0
 15 17  1  0
 17 18  1  0
 17 19  1  0
 17 20  1  0
 21 22  1  0
 21 23  1  0
 21 24  1  0
 24 25  1  0
 24 26  1  0
 27 28  4  0
 27 29  1  0
 29 30  1  0
M  END
>  <name>


$$$$

 SMI23D  v 9.10   1.00000     0.00000

 23 23  0  0  0  0              1 V2000
    6.8223   11.7331    7.6046 H   0  0  0  0  0  0 
    7.5884   11.7568    8.4607 C   0  0  0  0  0  0 
    7.6543   10.3074    8.9089 C   0  0  0  0  0  0 
    7.6516   10.6710   10.0043 H   0  0  0  0  0  0 
    8.8281    9.4014    8.7282 C   0  0  0  0  0  0 
    8.3189    8.1633    8.1753 C   0  0  0  0  0  0 
    8.1414    8.1980    7.0952 H   0  0  0  0  0  0 
    9.0765    7.3495    8.4334 H   0  0  0  0  0  0 
    6.8318    7.6595    9.0203 S   0  0  0  0  0  0 
    6.8773    6.2084    9.1760 O   0  0  0  0  0  0 
    6.7356    8.3799   10.2467 O   0  0  0  0  0  0 
    5.5114    7.9922    8.0869 N   0  0  0  0  0  0 
    4.6779    7.6936    8.6044 H   0  0  0  0  0  0 
    5.5156    7.3596    7.2841 H   0  0  0  0  0  0 
   10.0201   10.1033    8.1223 C   0  0  0  0  0  0 
   10.5241    9.3870    6.7554 C   0  0  0  0  0  0 
    9.8719    9.8142    5.9894 H   0  0  0  0  0  0 
   10.6164    8.3698    6.8309 H   0  0  0  0  0  0 
   11.5588    9.8790    6.6603 H   0  0  0  0  0  0 
   10.1956   11.5971    8.1287 C   0  0  0  0  0  0 
   11.0013   12.0343    8.8361 H   0  0  0  0  0  0 
    8.8804   12.3781    8.2833 C   0  0  0  0  0  0 
    9.0774   13.3529    9.1979 F   0  0  0  0  0  0 
  1  2  1  0
  2  3  1  0
  2 22  2  0
  3  4  4  0
  3  5  2  0
  5  6  1  0
  5 15  1  0
  6  7  1  0
  6  8  1  0
  6  9  1  0
  9 10  2  0
  9 11  2  0
  9 12  1  0
 12 13  1  0
 12 14  1  0
 15 16  1  0
 15 20  2  0
 16 17  1  0
 16 18  1  0
 16 19  1  0
 20 21  4  0
 20 22  1  0
 22 23  1  0
M  END
>  <name>


$$$$

 SMI23D  v 9.10   1.00000     0.00000

 30 31  0  0  0  0              1 V2000
    8.4556   15.2145   14.2240 H   0  0  0  0  0  0 
    9.1940   14.9972   13.4166 C   0  0  0  0  0  0 
    9.8100   13.6119   13.7962 C   0  0  0  0  0  0 
   11.2601   13.6496   14.1234 C   0  0  0  0  0  0 
   11.3900   13.6575   15.2312 H   0  0  0  0  0  0 
   11.7126   14.5860   13.7235 H   0  0  0  0  0  0 
   11.9444   12.4990   13.5533 N   0  0  0  0  0  0 
   11.7374   12.1637   12.2716 C   0  0  0  0  0  0 
   11.0877   11.1605   12.0036 O   0  0  0  0  0  0 
   12.2577   12.9474   11.3901 N   0  0  0  0  0  0 
   11.9459   12.7756   10.5096 H   0  0  0  0  0  0 
   13.3110   13.7298   11.5613 C   0  0  0  0  0  0 
   12.7691   14.6690   11.4735 H   0  0  0  0  0  0 
   14.3358   12.6084   11.5627 C   0  0  0  0  0  0 
   14.4861   11.9783   10.6092 H   0  0  0  0  0  0 
   14.3091   11.8702   12.4459 H   0  0  0  0  0  0 
   14.7938   13.9760   11.6968 C   0  0  0  0  0  0 
   15.3649   14.5059   10.8483 H   0  0  0  0  0  0 
   15.1642   14.4109   12.6898 H   0  0  0  0  0  0 
   12.4418   11.4696   14.4653 C   0  0  0  0  0  0 
   12.7386   10.5699   13.8815 H   0  0  0  0  0  0 
   13.3155   11.8719   15.0108 H   0  0  0  0  0  0 
   11.6362   11.1852   15.1740 H   0  0  0  0  0  0 
    9.4096   12.7591   12.9483 N   0  0  0  0  0  0 
    8.3708   13.1576   12.2521 O   0  0  0  0  0  0 
    8.3407   14.5744   12.1620 C   0  0  0  0  0  0 
    9.1501   14.9608   10.9323 C   0  0  0  0  0  0 
    9.7546   15.8686   11.1587 H   0  0  0  0  0  0 
    8.4609   15.1785   10.0867 H   0  0  0  0  0  0 
    9.8287   14.1253   10.6538 H   0  0  0  0  0  0 
  1  2  1  0
  2  3  1  0
  2 26  1  0
  3  4  1  0
  3 24  2  0
  4  5  1  0
  4  6  1  0
  4  7  1  0
  7  8  1  0
  7 20  1  0
  8  9  2  0
  8 10  1  0
 10 11  1  0
 10 12  1  0
 12 13  1  0
 12 14  1  0
 12 17  1  0
 14 15  1  0
 14 16  1  0
 14 17  1  0
 17 18  1  0
 17 19  1  0
 20 21  1  0
 20 22  1  0
 20 23  1  0
 24 25  1  0
 25 26  1  0
 26 27  1  0
 27 28  1  0
 27 29  1  0
 27 30  1  0
M  END
>  <name>


$$$$

 SMI23D  v 9.10   1.00000     0.00000

 26 27  0  0  0  0              1 V2000
    5.8618   13.6017   13.2380 H   0  0  0  0  0  0 
    6.0546   12.4715   13.5291 C   0  0  0  0  0  0 
    6.8115   11.9992   12.5435 C   0  0  0  0  0  0 
    6.2134   10.9404   11.7734 F   0  0  0  0  0  0 
    8.1928   11.3009   12.9452 C   0  0  0  0  0  0 
    8.4083   10.9619   12.2923 H   0  0  0  0  0  0 
    9.0416   12.0401   13.1305 H   0  0  0  0  0  0 
    7.7085   10.7033   14.1006 N   0  3  0  0  0  0 
    8.2129    9.3355   14.3185 C   0  0  0  0  0  0 
    7.3047    8.5398   14.3887 H   0  0  0  0  0  0 
    8.9312    9.1717   15.0818 H   0  0  0  0  0  0 
    8.7350    8.6748   13.0471 C   0  0  0  0  0  0 
    7.8955    8.4769   12.1147 N   0  0  0  0  0  0 
    8.2102    8.7590   10.9662 N   0  0  0  0  0  0 
    9.5944    9.1990   10.8284 C   0  0  0  0  0  0 
   10.3414    8.4775    9.8190 C   0  0  0  0  0  0 
   11.0946    7.7512   10.1604 H   0  0  0  0  0  0 
    9.6163    7.8867    9.1202 H   0  0  0  0  0  0 
   10.8562    9.1884    9.0735 H   0  0  0  0  0  0 
   10.0988    9.1128   12.3223 S   0  0  0  0  0  0 
    7.1096   11.1901   15.0625 C   0  0  0  0  0  0 
    6.8341   10.2162   15.8039 H   0  0  0  0  0  0 
    8.0104   11.2932   15.9230 H   0  0  0  0  0  0 
    6.1813   12.2771   15.1084 C   0  0  0  0  0  0 
    6.4144   13.4340   15.4653 H   0  0  0  0  0  0 
    5.1449   12.2392   15.3676 H   0  0  0  0  0  0 
  1  2  1  0
  2  3  2  0
  2 24  1  0
  3  4  1  0
  3  5  1  0
  5  6  1  0
  5  7  1  0
  5  8  2  0
  8  9  1  0
  8 21  1  0
  9 10  1  0
  9 11  1  0
  9 12  1  0
 12 13  1  0
 12 20  2  0
 13 14  2  0
 14 15  1  0
 15 16  1  0
 15 20  1  0
 16 17  1  0
 16 18  1  0
 16 19  1  0
 21 22  1  0
 21 23  1  0
 21 24  2  0
 24 25  1  0
 24 26  1  0
M  END
>  <name>


$$$$

 SMI23D  v 9.10   1.00000     0.00000

 15 13  0  0  0  0              1 V2000
  103.5060    1.4148    1.0642 H   0  0  0  0  0  0 
  102.7866    0.0689    0.9553 Cl  0  0  0  0  0  0 
  105.6994    2.8967    5.4896 H   0  0  0  0  0  0 
  106.4864    3.2985    6.0000 N   0  0  0  0  0  0 
  107.4789    3.8685    5.5764 C   0  0  0  0  0  0 
  108.6422    3.1739    5.8775 N   0  0  0  0  0  0 
  109.3382    3.4485    5.3109 H   0  0  0  0  0  0 
  108.7317    3.1117    6.8153 H   0  0  0  0  0  0 
  107.6196    5.3690    5.7580 C   0  0  0  0  0  0 
  107.5979    5.8326    4.7430 H   0  0  0  0  0  0 
  108.5595    5.6153    6.2701 H   0  0  0  0  0  0 
  106.4318    5.8753    6.5629 C   0  0  0  0  0  0 
  106.6020    6.9441    6.8332 H   0  0  0  0  0  0 
  106.3202    5.2817    7.4958 H   0  0  0  0  0  0 
  105.5060    5.7947    5.9525 H   0  0  0  0  0  0 
  1  2  1  0
  3  4  1  0
  4  5  2  0
  5  6  1  0
  5  9  1  0
  6  7  1  0
  6  8  1  0
  9 10  1  0
  9 11  1  0
  9 12  1  0
 12 13  1  0
 12 14  1  0
 12 15  1  0
M  END
>  <name>


$$$$

 SMI23D  v 9.10   1.00000     0.00000

 31 33  0  0  0  0              1 V2000
   13.1260    9.8635   10.9153 H   0  0  0  0  0  0 
   12.9591   10.7660   10.7261 O   0  0  0  0  0  0 
   12.7544   11.4058   11.9357 C   0  0  0  0  0  0 
   12.2823   12.7146   11.3174 C   0  0  0  0  0  0 
   11.3146   12.7547   11.7107 H   0  0  0  0  0  0 
   12.8994   14.0517   11.3786 C   0  0  0  0  0  0 
   13.4094   14.2872   10.4195 H   0  0  0  0  0  0 
   14.0146   13.8986   12.3895 C   0  0  0  0  0  0 
   13.7091   14.7267   13.0278 H   0  0  0  0  0  0 
   14.6824   12.9164   13.1129 C   0  0  0  0  0  0 
   15.6491   12.5983   12.6236 H   0  0  0  0  0  0 
   13.7348   11.6397   13.0080 C   0  0  0  0  0  0 
   13.3962   11.1662   14.4056 C   0  0  0  0  0  0 
   13.5293   11.9449   15.1722 H   0  0  0  0  0  0 
   14.0398   10.2955   14.6430 H   0  0  0  0  0  0 
   11.9802   10.7518   14.4229 N   0  0  0  0  0  0 
   11.7971    9.8409   14.7276 H   0  0  0  0  0  0 
   11.0704   11.5433   14.9034 C   0  0  0  0  0  0 
   10.0870   11.8926   13.6943 N   0  0  0  0  0  0 
    9.6839   12.7515   14.3364 C   0  0  0  0  0  0 
    8.7538   13.6216   13.9827 C   0  0  0  0  0  0 
    7.7725   13.5919   14.6314 H   0  0  0  0  0  0 
    8.7576   14.9866   13.4705 C   0  0  0  0  0  0 
    8.6787   15.1013   12.4060 H   0  0  0  0  0  0 
   10.0628   15.4856   14.0053 C   0  0  0  0  0  0 
   10.4076   16.0786   13.1303 H   0  0  0  0  0  0 
   11.1913   14.8096   14.5694 C   0  0  0  0  0  0 
   11.3530   15.2148   15.6546 H   0  0  0  0  0  0 
   10.6975   13.5314   14.7618 C   0  0  0  0  0  0 
   11.2382   12.8224   15.3528 N   0  3  0  0  0  0 
   11.0349   12.8754   16.3434 H   0  0  0  0  0  0 
  1  2  1  0
  2  3  1  0
  3  4  1  0
  3 12  2  0
  4  5  4  0
  4  6  2  0
  6  7  4  0
  6  8  1  0
  8  9  4  0
  8 10  2  0
 10 11  4  0
 10 12  1  0
 12 13  1  0
 13 14  1  0
 13 15  1  0
 13 16  1  0
 16 17  1  0
 16 18  1  0
 18 19  1  0
 18 30  2  0
 19 20  1  0
 20 21  1  0
 20 29  3  0
 21 22  4  0
 21 23  2  0
 23 24  4  0
 23 25  1  0
 25 26  4  0
 25 27  2  0
 27 28  4  0
 27 29  1  0
 29 30  1  0
 30 31  1  0
M  END
>  <name>


$$$$

 SMI23D  v 9.10   1.00000     0.00000

 30 31  0  0  0  0              1 V2000
   10.9354   11.6895   13.2369 H   0  0  0  0  0  0 
   11.3654   12.3491   12.3449 C   0  0  0  0  0  0 
   12.2517   11.7415   11.3996 C   0  0  0  0  0  0 
   13.3582   11.6306   11.4003 H   0  0  0  0  0  0 
   11.9581   12.8336    9.9165 S   0  0  0  0  0  0 
   11.5557   12.0297    8.8618 O   0  0  0  0  0  0 
   13.0421   13.7213    9.8371 O   0  0  0  0  0  0 
   10.5174   13.7999   10.4806 C   0  0  0  0  0  0 
   10.7001   14.8523   10.3308 H   0  0  0  0  0  0 
    9.6320   13.4479    9.9114 H   0  0  0  0  0  0 
   10.3914   13.4059   11.9433 C   0  0  0  0  0  0 
    9.3553   13.0124   12.1064 H   0  0  0  0  0  0 
   10.5703   14.6522   12.7742 N   0  0  0  0  0  0 
   11.6516   15.4043   12.5620 C   0  0  0  0  0  0 
   11.5063   16.5124   12.0116 O   0  0  0  0  0  0 
   13.0405   14.9357   12.8300 C   0  0  0  0  0  0 
   13.1087   13.8965   13.1304 H   0  0  0  0  0  0 
   13.6700   15.1216   11.9173 H   0  0  0  0  0  0 
   13.8016   15.9006   14.1368 Cl  0  0  0  0  0  0 
    9.4595   15.2994   12.8920 C   0  0  0  0  0  0 
    9.3208   15.3880   14.4034 C   0  0  0  0  0  0 
   10.3799   15.3192   14.6968 H   0  0  0  0  0  0 
    8.7614   16.5865   15.0525 C   0  0  0  0  0  0 
    7.8032   16.2188   15.6262 H   0  0  0  0  0  0 
    8.5026   17.7243   14.2235 C   0  0  0  0  0  0 
    9.5622   18.5460   14.7034 F   0  0  0  0  0  0 
    8.4898   17.6802   12.7196 C   0  0  0  0  0  0 
    7.5443   18.1070   12.3536 H   0  0  0  0  0  0 
    8.7295   16.2652   12.1216 C   0  0  0  0  0  0 
    7.7525   15.8461   11.6299 H   0  0  0  0  0  0 
  1  2  1  0
  2  3  2  0
  2 11  1  0
  3  4  1  0
  3  5  1  0
  5  6  2  0
  5  7  2  0
  5  8  1  0
  8  9  1  0
  8 10  1  0
  8 11  1  0
 11 12  1  0
 11 13  1  0
 13 14  1  0
 13 20  1  0
 14 15  2  0
 14 16  1  0
 16 17  1  0
 16 18  1  0
 16 19  1  0
 20 21  1  0
 20 29  2  0
 21 22  4  0
 21 23  2  0
 23 24  4  0
 23 25  1  0
 25 26  1  0
 25 27  2  0
 27 28  4  0
 27 29  1  0
 29 30  1  0
M  END
>  <name>


$$$$

 SMI23D  v 9.10   1.00000     0.00000

 35 36  0  0  0  0              1 V2000
   10.9233    9.7967    7.6571 H   0  0  0  0  0  0 
   10.8194    9.5170    8.7820 C   0  0  0  0  0  0 
   11.7671   10.3878    9.5425 C   0  0  0  0  0  0 
   12.1985   11.0129    8.7606 H   0  0  0  0  0  0 
   12.9470    9.9473   10.3226 C   0  0  0  0  0  0 
   12.5961   10.1892   11.6213 N   0  0  0  0  0  0 
   13.1744   11.5736   11.9532 C   0  0  0  0  0  0 
   12.7577   12.2513   11.1816 H   0  0  0  0  0  0 
   14.2554   11.4657   11.8602 H   0  0  0  0  0  0 
   12.7433   12.0093   13.3198 C   0  0  0  0  0  0 
   11.8401   12.6569   13.2741 H   0  0  0  0  0  0 
   13.5549   12.5410   13.8489 H   0  0  0  0  0  0 
   12.3864   10.8056   14.1034 N   0  0  0  0  0  0 
   13.4622   10.0316   14.4770 C   0  0  0  0  0  0 
   14.1345    9.5505   13.5683 O   0  0  0  0  0  0 
   14.1190   10.4198   15.7748 C   0  0  0  0  0  0 
   14.6827    9.5490   16.1595 H   0  0  0  0  0  0 
   14.7947   11.2742   15.6031 H   0  0  0  0  0  0 
   12.9158   10.8842   16.9842 Cl  0  0  0  0  0  0 
   11.2004   10.0957   13.6153 C   0  0  0  0  0  0 
   10.3086   10.6828   13.9505 H   0  0  0  0  0  0 
   11.1762    9.0904   14.0522 H   0  0  0  0  0  0 
   11.2267   10.0479   12.0984 C   0  0  0  0  0  0 
   10.6318   10.9128   11.7042 H   0  0  0  0  0  0 
   10.8004    9.1033   11.7305 H   0  0  0  0  0  0 
   12.9789    8.4813   10.2426 C   0  0  0  0  0  0 
   13.9351    8.4931    9.5990 H   0  0  0  0  0  0 
   12.1458    7.4340    9.7618 C   0  0  0  0  0  0 
   11.9511    6.6926   10.5516 H   0  0  0  0  0  0 
   10.8809    8.0938    9.1860 C   0  0  0  0  0  0 
    9.6449    7.6192    9.7605 O   0  0  0  0  0  0 
    8.9861    6.7384    8.8854 C   0  0  0  0  0  0 
    8.0192    6.4931    9.3393 H   0  0  0  0  0  0 
    8.8642    7.2602    7.9199 H   0  0  0  0  0  0 
    9.6260    5.8457    8.7732 H   0  0  0  0  0  0 
  1  2  1  0
  2  3  1  0
  2 30  2  0
  3  4  4  0
  3  5  2  0
  5  6  1  0
  5 26  1  0
  6  7  1  0
  6 23  1  0
  7  8  1  0
  7  9  1  0
  7 10  1  0
 10 11  1  0
 10 12  1  0
 10 13  1  0
 13 14  1  0
 13 20  1  0
 14 15  2  0
 14 16  1  0
 16 17  1  0
 16 18  1  0
 16 19  1  0
 20 21  1  0
 20 22  1  0
 20 23  1  0
 23 24  1  0
 23 25  1  0
 26 27  4  0
 26 28  2  0
 28 29  4  0
 28 30  1  0
 30 31  1  0
 31 32  1  0
 32 33  1  0
 32 34  1  0
 32 35  1  0
M  END
>  <name>


$$$$

 SMI23D  v 9.10   1.00000     0.00000

 37 39  0  0  0  0              1 V2000
   14.5239   12.0892    9.8650 H   0  0  0  0  0  0 
   14.5402   12.8720   10.7328 C   0  0  0  0  0  0 
   13.2219   12.9207   11.1460 N   0  0  0  0  0  0 
   13.2576   12.0924   12.2173 C   0  0  0  0  0  0 
   14.1351   12.0694   13.5712 C   0  0  0  0  0  0 
   15.5153   12.1954   13.1555 C   0  0  0  0  0  0 
   16.3700   11.5512   13.3590 H   0  0  0  0  0  0 
   15.6097   12.7605   11.6826 C   0  0  0  0  0  0 
   16.3369   13.6523   11.8007 H   0  0  0  0  0  0 
   13.3178   12.8078   14.5687 C   0  0  0  0  0  0 
   13.1859   12.4650   15.9539 C   0  0  0  0  0  0 
   13.8226   11.6439   16.3396 H   0  0  0  0  0  0 
   12.0968   12.1679   16.1931 H   0  0  0  0  0  0 
   13.4195   13.6894   16.8385 C   0  0  0  0  0  0 
   12.9161   13.7235   17.9582 O   0  0  0  0  0  0 
   14.5743   14.3835   16.6298 N   0  0  0  0  0  0 
   14.9382   14.8177   15.3255 C   0  0  0  0  0  0 
   15.4904   14.0029   14.8102 H   0  0  0  0  0  0 
   14.0654   15.1588   14.7385 H   0  0  0  0  0  0 
   15.9285   16.0075   15.3779 C   0  0  0  0  0  0 
   15.3251   16.9384   15.5258 H   0  0  0  0  0  0 
   16.2911   16.0468   14.2825 H   0  0  0  0  0  0 
   16.9175   15.8312   16.2608 N   0  0  0  0  0  0 
   17.9975   16.6993   16.2805 C   0  0  0  0  0  0 
   17.8705   17.4834   17.0850 H   0  0  0  0  0  0 
   18.1698   17.2485   15.3222 H   0  0  0  0  0  0 
   18.9692   16.1560   16.5010 H   0  0  0  0  0  0 
   16.9059   14.8820   17.2538 C   0  0  0  0  0  0 
   17.3808   15.3144   18.2147 H   0  0  0  0  0  0 
   17.5821   14.0098   16.9767 H   0  0  0  0  0  0 
   15.5688   14.3185   17.6813 C   0  0  0  0  0  0 
   15.1888   14.8678   18.5740 H   0  0  0  0  0  0 
   15.7000   13.2378   17.9631 H   0  0  0  0  0  0 
   11.9532   13.0541   13.8739 C   0  0  0  0  0  0 
   11.7453   14.1519   13.7354 H   0  0  0  0  0  0 
   11.9754   12.3483   12.6436 N   0  0  0  0  0  0 
   11.5540   11.5059   12.8296 H   0  0  0  0  0  0 
  1  2  1  0
  2  3  1  0
  2  8  2  0
  3  4  2  0
  4  5  1  0
  4 36  1  0
  5  6  2  0
  5 10  1  0
  6  7  4  0
  6  8  1  0
  8  9  1  0
 10 11  1  0
 10 34  1  0
 11 12  1  0
 11 13  1  0
 11 14  1  0
 14 15  2  0
 14 16  1  0
 16 17  1  0
 16 31  1  0
 17 18  1  0
 17 19  1  0
 17 20  1  0
 20 21  1  0
 20 22  1  0
 20 23  1  0
 23 24  1  0
 23 28  1  0
 24 25  1  0
 24 26  1  0
 24 27  1  0
 28 29  1  0
 28 30  1  0
 28 31  1  0
 31 32  1  0
 31 33  1  0
 34 35  4  0
 34 36  1  0
 36 37  1  0
M  END
>  <name>


$$$$

 SMI23D  v 9.10   1.00000     0.00000

 29 30  0  0  0  0              1 V2000
   14.0265   11.3268   14.0002 H   0  0  0  0  0  0 
   15.0080   11.1577   13.4963 C   0  0  0  0  0  0 
   14.8671    9.8203   12.5247 C   0  0  0  0  0  0 
   13.5766    9.4901   12.6305 F   0  0  0  0  0  0 
   15.3114   10.1419   11.1385 C   0  0  0  0  0  0 
   16.1869    9.4209   10.7841 H   0  0  0  0  0  0 
   15.5003   11.4245   10.3679 C   0  0  0  0  0  0 
   14.4687   11.8059    9.2999 C   0  0  0  0  0  0 
   13.5673   10.8238    8.7849 C   0  0  0  0  0  0 
   12.9925   11.2506    7.9166 H   0  0  0  0  0  0 
   14.2098    9.9852    8.3135 H   0  0  0  0  0  0 
   12.6120   10.1309    9.7273 C   0  0  0  0  0  0 
   12.3293   10.8091   10.5634 H   0  0  0  0  0  0 
   13.1854    9.2476   10.1909 H   0  0  0  0  0  0 
   11.4593    9.5773    9.1126 N   0  0  0  0  0  0 
   11.0309    8.7836    9.4473 H   0  0  0  0  0  0 
   10.8630    9.9603    7.9721 C   0  0  0  0  0  0 
   11.1969    9.3794    6.9219 O   0  0  0  0  0  0 
    9.3894   10.3321    8.1139 C   0  0  0  0  0  0 
    9.1720   10.4626    9.1843 H   0  0  0  0  0  0 
    9.2211   11.2642    7.5506 H   0  0  0  0  0  0 
    8.7961    9.5006    7.6870 H   0  0  0  0  0  0 
   13.9533   13.0964    9.8350 C   0  0  0  0  0  0 
   12.9101   13.3553    9.8495 H   0  0  0  0  0  0 
   14.7931   13.6247   10.8810 N   0  0  0  0  0  0 
   14.2094   13.8331   11.5960 H   0  0  0  0  0  0 
   15.7061   12.6817   11.3204 C   0  0  0  0  0  0 
   15.6482   12.2740   12.7706 C   0  0  0  0  0  0 
   16.6832   12.6097   13.2153 H   0  0  0  0  0  0 
  1  2  1  0
  2  3  1  0
  2 28  2  0
  3  4  1  0
  3  5  2  0
  5  6  4  0
  5  7  1  0
  7  8  1  0
  7 27  2  0
  8  9  1  0
  8 23  1  0
  9 10  1  0
  9 11  1  0
  9 12  1  0
 12 13  1  0
 12 14  1  0
 12 15  1  0
 15 16  1  0
 15 17  1  0
 17 18  2  0
 17 19  1  0
 19 20  1  0
 19 21  1  0
 19 22  1  0
 23 24  4  0
 23 25  1  0
 25 26  4  0
 25 27  1  0
 27 28  1  0
 28 29  1  0
M  END
>  <name>


$$$$

 SMI23D  v 9.10   1.00000     0.00000

 30 32  0  0  0  0              1 V2000
    9.5617   15.6084   10.0395 H   0  0  0  0  0  0 
    9.2108   16.0936   11.0740 C   0  0  0  0  0  0 
   10.3763   16.4526   11.6840 N   0  0  0  0  0  0 
   10.2626   15.9246   12.9384 C   0  0  0  0  0  0 
   11.1801   16.1612   13.3828 H   0  0  0  0  0  0 
    9.5949   14.7305   13.5685 C   0  0  0  0  0  0 
   10.3990   13.6391   13.5987 N   0  0  0  0  0  0 
   11.0993   13.2204   12.3498 C   0  0  0  0  0  0 
   11.4327   14.0901   11.7758 H   0  0  0  0  0  0 
   10.4925   12.5574   11.7490 H   0  0  0  0  0  0 
   12.3573   12.4799   12.8926 C   0  0  0  0  0  0 
   13.1547   13.2826   12.9717 H   0  0  0  0  0  0 
   12.6650   11.6805   12.3077 H   0  0  0  0  0  0 
   11.9625   12.1482   14.3584 C   0  0  0  0  0  0 
   13.1398   11.5647   15.0592 C   0  0  0  0  0  0 
   12.9690   11.4055   16.1368 H   0  0  0  0  0  0 
   14.1173   12.0035   14.8617 H   0  0  0  0  0  0 
   13.2286   10.2101   14.5166 O   0  0  0  0  0  0 
   11.9684    9.7660   14.1258 C   0  0  0  0  0  0 
   11.6772    8.9226   14.7900 H   0  0  0  0  0  0 
   11.9705    9.4372   13.0836 H   0  0  0  0  0  0 
   10.9956   10.9252   14.3393 C   0  0  0  0  0  0 
   10.2032   11.0123   13.6521 H   0  0  0  0  0  0 
   10.6189   10.8130   15.4024 H   0  0  0  0  0  0 
   11.2400   13.3389   14.8310 C   0  0  0  0  0  0 
   11.9034   14.2249   14.9186 H   0  0  0  0  0  0 
   10.5491   13.2724   15.6536 H   0  0  0  0  0  0 
    8.4635   14.3963   12.8901 N   0  0  0  0  0  0 
    8.2495   15.2805   11.8388 C   0  0  0  0  0  0 
    7.2098   15.7310   12.0312 H   0  0  0  0  0  0 
  1  2  1  0
  2  3  1  0
  2 29  2  0
  3  4  2  0
  4  5  4  0
  4  6  1  0
  6  7  1  0
  6 28  2  0
  7  8  1  0
  7 25  1  0
  8  9  1  0
  8 10  1  0
  8 11  1  0
 11 12  1  0
 11 13  1  0
 11 14  1  0
 14 15  1  0
 14 22  1  0
 14 25  1  0
 15 16  1  0
 15 17  1  0
 15 18  1  0
 18 19  1  0
 19 20  1  0
 19 21  1  0
 19 22  1  0
 22 23  1  0
 22 24  1  0
 25 26  1  0
 25 27  1  0
 28 29  1  0
 29 30  1  0
M  END
>  <name>


$$$$

 SMI23D  v 9.10   1.00000     0.00000

 26 26  0  0  0  0              1 V2000
    8.4218   10.1390   12.9636 H   0  0  0  0  0  0 
    7.9795   11.1073   12.7282 C   0  0  0  0  0  0 
    7.7549   11.1371   11.2416 C   0  0  0  0  0  0 
    8.2561   10.2456   10.8850 H   0  0  0  0  0  0 
    8.1914   12.1932   10.2742 C   0  0  0  0  0  0 
    6.9344   12.8608   10.0088 C   0  0  0  0  0  0 
    6.8828   13.3218    8.8261 O   0  0  0  0  0  0 
    5.8534   12.1349   10.3623 O   0  0  0  0  0  0 
    5.1467   12.5656   11.4813 C   0  0  0  0  0  0 
    5.2188   13.6658   11.5360 H   0  0  0  0  0  0 
    4.0904   12.2496   11.3650 H   0  0  0  0  0  0 
    5.5914   12.0961   12.3787 H   0  0  0  0  0  0 
    8.8896   13.2145   11.0766 C   0  0  0  0  0  0 
    8.3897   14.1444   10.7031 H   0  0  0  0  0  0 
    9.3335   13.4046   12.3813 C   0  0  0  0  0  0 
   10.6620   13.2450   12.4215 N   0  0  0  0  0  0 
   11.0376   13.7024   11.6469 H   0  0  0  0  0  0 
   11.2499   11.7476   12.4972 S   0  0  0  0  0  0 
   12.6785   11.8686   12.1891 O   0  0  0  0  0  0 
   10.5440   10.8893   11.6037 O   0  0  0  0  0  0 
   11.1431   11.0895   14.1391 C   0  0  0  0  0  0 
   10.6083   10.1146   14.1353 H   0  0  0  0  0  0 
   10.6061   11.8115   14.7956 H   0  0  0  0  0  0 
   12.1683   10.9177   14.5575 H   0  0  0  0  0  0 
    8.5900   12.3535   13.2427 C   0  0  0  0  0  0 
    7.8587   13.0085   13.8701 H   0  0  0  0  0  0 
  1  2  1  0
  2  3  1  0
  2 25  2  0
  3  4  4  0
  3  5  2  0
  5  6  1  0
  5 13  1  0
  6  7  2  0
  6  8  1  0
  8  9  1  0
  9 10  1  0
  9 11  1  0
  9 12  1  0
 13 14  4  0
 13 15  2  0
 15 16  1  0
 15 25  1  0
 16 17  1  0
 16 18  1  0
 18 19  2  0
 18 20  2  0
 18 21  1  0
 21 22  1  0
 21 23  1  0
 21 24  1  0
 25 26  1  0
M  END
>  <name>


$$$$

 SMI23D  v 9.10   1.00000     0.00000

 37 39  0  0  0  0              1 V2000
   14.5239   12.0892    9.8650 H   0  0  0  0  0  0 
   14.5402   12.8720   10.7328 C   0  0  0  0  0  0 
   13.2219   12.9207   11.1460 N   0  0  0  0  0  0 
   13.2576   12.0924   12.2173 C   0  0  0  0  0  0 
   14.1351   12.0694   13.5712 C   0  0  0  0  0  0 
   15.5153   12.1954   13.1555 C   0  0  0  0  0  0 
   16.3700   11.5512   13.3590 H   0  0  0  0  0  0 
   15.6097   12.7605   11.6826 C   0  0  0  0  0  0 
   16.3369   13.6523   11.8007 H   0  0  0  0  0  0 
   13.3178   12.8078   14.5687 C   0  0  0  0  0  0 
   13.1859   12.4650   15.9539 C   0  0  0  0  0  0 
   13.8226   11.6439   16.3396 H   0  0  0  0  0  0 
   12.0968   12.1679   16.1931 H   0  0  0  0  0  0 
   13.4195   13.6894   16.8385 C   0  0  0  0  0  0 
   12.9161   13.7235   17.9582 O   0  0  0  0  0  0 
   14.5743   14.3835   16.6298 N   0  0  0  0  0  0 
   14.9382   14.8177   15.3255 C   0  0  0  0  0  0 
   15.4904   14.0029   14.8102 H   0  0  0  0  0  0 
   14.0654   15.1588   14.7385 H   0  0  0  0  0  0 
   15.9285   16.0075   15.3779 C   0  0  0  0  0  0 
   15.3251   16.9384   15.5258 H   0  0  0  0  0  0 
   16.2911   16.0468   14.2825 H   0  0  0  0  0  0 
   16.9175   15.8312   16.2608 N   0  0  0  0  0  0 
   17.9975   16.6993   16.2805 C   0  0  0  0  0  0 
   17.8705   17.4834   17.0850 H   0  0  0  0  0  0 
   18.1698   17.2485   15.3222 H   0  0  0  0  0  0 
   18.9692   16.1560   16.5010 H   0  0  0  0  0  0 
   16.9059   14.8820   17.2538 C   0  0  0  0  0  0 
   17.3808   15.3144   18.2147 H   0  0  0  0  0  0 
   17.5821   14.0098   16.9767 H   0  0  0  0  0  0 
   15.5688   14.3185   17.6813 C   0  0  0  0  0  0 
   15.1888   14.8678   18.5740 H   0  0  0  0  0  0 
   15.7000   13.2378   17.9631 H   0  0  0  0  0  0 
   11.9532   13.0541   13.8739 C   0  0  0  0  0  0 
   11.7453   14.1519   13.7354 H   0  0  0  0  0  0 
   11.9754   12.3483   12.6436 N   0  0  0  0  0  0 
   11.5540   11.5059   12.8296 H   0  0  0  0  0  0 
  1  2  1  0
  2  3  1  0
  2  8  2  0
  3  4  2  0
  4  5  1  0
  4 36  1  0
  5  6  2  0
  5 10  1  0
  6  7  4  0
  6  8  1  0
  8  9  1  0
 10 11  1  0
 10 34  1  0
 11 12  1  0
 11 13  1  0
 11 14  1  0
 14 15  2  0
 14 16  1  0
 16 17  1  0
 16 31  1  0
 17 18  1  0
 17 19  1  0
 17 20  1  0
 20 21  1  0
 20 22  1  0
 20 23  1  0
 23 24  1  0
 23 28  1  0
 24 25  1  0
 24 26  1  0
 24 27  1  0
 28 29  1  0
 28 30  1  0
 28 31  1  0
 31 32  1  0
 31 33  1  0
 34 35  4  0
 34 36  1  0
 36 37  1  0
M  END
>  <name>


$$$$

 SMI23D  v 9.10   1.00000     0.00000

 31 32  0  0  0  0              1 V2000
    7.2757   15.0539   11.8779 H   0  0  0  0  0  0 
    8.3031   15.0463   12.3306 C   0  0  0  0  0  0 
    8.5157   13.2503   12.7371 S   0  0  0  0  0  0 
    9.7761   13.6315   13.9704 C   0  0  0  0  0  0 
   10.9119   12.6808   13.9614 C   0  0  0  0  0  0 
   11.7126   13.3638   14.5444 H   0  0  0  0  0  0 
   10.6200   11.9321   14.8107 H   0  0  0  0  0  0 
   11.5283   12.0542   12.9546 N   0  0  0  0  0  0 
   12.8345   11.6241   13.2492 C   0  0  0  0  0  0 
   13.5721   12.4599   13.1363 H   0  0  0  0  0  0 
   12.9355   11.2496   14.3189 H   0  0  0  0  0  0 
   13.3168   10.4270   12.4209 C   0  0  0  0  0  0 
   12.8162    9.5126   12.7936 H   0  0  0  0  0  0 
   14.4104   10.3392   12.5076 H   0  0  0  0  0  0 
   12.9571   10.6217   11.0146 N   0  0  0  0  0  0 
   13.8835   11.2420   10.2249 C   0  0  0  0  0  0 
   14.5727   12.1258   10.6948 O   0  0  0  0  0  0 
   14.2696   10.5076    8.9741 C   0  0  0  0  0  0 
   14.8929    9.6379    9.2407 H   0  0  0  0  0  0 
   13.3590   10.1976    8.4355 H   0  0  0  0  0  0 
   15.2172   11.5575    7.9014 Cl  0  0  0  0  0  0 
   11.5552   10.9707   10.7927 C   0  0  0  0  0  0 
   11.3643   11.1676    9.7432 H   0  0  0  0  0  0 
   10.9075   10.1968   11.2191 H   0  0  0  0  0  0 
   11.3465   12.2900   11.6084 C   0  0  0  0  0  0 
   10.3767   12.6852   11.2852 H   0  0  0  0  0  0 
   12.1337   13.0043   11.1903 H   0  0  0  0  0  0 
    9.5602   14.9094   14.4188 C   0  0  0  0  0  0 
    9.4082   15.3832   15.4548 H   0  0  0  0  0  0 
    8.7982   15.7690   13.4153 C   0  0  0  0  0  0 
    9.4096   16.7302   13.3072 H   0  0  0  0  0  0 
  1  2  1  0
  2  3  1  0
  2 30  2  0
  3  4  1  0
  4  5  1  0
  4 28  2  0
  5  6  1  0
  5  7  1  0
  5  8  1  0
  8  9  1  0
  8 25  1  0
  9 10  1  0
  9 11  1  0
  9 12  1  0
 12 13  1  0
 12 14  1  0
 12 15  1  0
 15 16  1  0
 15 22  1  0
 16 17  2  0
 16 18  1  0
 18 19  1  0
 18 20  1  0
 18 21  1  0
 22 23  1  0
 22 24  1  0
 22 25  1  0
 25 26  1  0
 25 27  1  0
 28 29  4  0
 28 30  1  0
 30 31  1  0
M  END
>  <name>


$$$$

 SMI23D  v 9.10   1.00000     0.00000

 38 38  0  0  0  0              1 V2000
   15.1907   13.0922   21.1211 H   0  0  0  0  0  0 
   15.8917   13.8322   20.6910 C   0  0  0  0  0  0 
   15.3718   14.6981   20.2731 H   0  0  0  0  0  0 
   16.8563   14.4545   22.0756 Cl  0  0  0  0  0  0 
   16.7795   13.1778   19.6939 C   0  0  0  0  0  0 
   17.9268   12.8320   20.0155 O   0  0  0  0  0  0 
   16.4211   13.0908   18.4002 N   0  0  0  0  0  0 
   15.0365   13.0615   17.9732 C   0  0  0  0  0  0 
   14.9043   12.2308   17.2430 H   0  0  0  0  0  0 
   14.3290   12.9971   18.7841 H   0  0  0  0  0  0 
   14.8452   14.3921   17.1955 C   0  0  0  0  0  0 
   13.7624   14.5299   17.0082 H   0  0  0  0  0  0 
   15.2360   15.1966   17.8378 H   0  0  0  0  0  0 
   15.6041   14.2709   15.8993 C   0  0  0  0  0  0 
   14.9334   13.6636   15.1928 H   0  0  0  0  0  0 
   15.7695   15.6246   15.2650 C   0  0  0  0  0  0 
   15.6930   16.6663   15.9047 O   0  0  0  0  0  0 
   15.3329   15.7194   13.9293 N   0  0  0  0  0  0 
   13.9585   16.0416   13.7259 C   0  0  0  0  0  0 
   13.8293   16.9607   13.1216 H   0  0  0  0  0  0 
   13.4427   16.2320   14.7222 H   0  0  0  0  0  0 
   13.4136   15.1867   13.2554 H   0  0  0  0  0  0 
   16.3928   16.0290   12.9776 C   0  0  0  0  0  0 
   17.2778   15.3495   13.3091 H   0  0  0  0  0  0 
   16.8632   17.4400   13.2170 C   0  0  0  0  0  0 
   16.0167   18.1509   13.2406 H   0  0  0  0  0  0 
   17.6403   17.7705   12.5044 H   0  0  0  0  0  0 
   17.3645   17.4687   14.2467 H   0  0  0  0  0  0 
   16.0638   15.6820   11.5798 C   0  0  0  0  0  0 
   16.5086   16.3698   10.8144 H   0  0  0  0  0  0 
   16.4760   14.6396   11.3298 H   0  0  0  0  0  0 
   14.9674   15.6213   11.3691 H   0  0  0  0  0  0 
   16.9268   13.6001   16.0150 C   0  0  0  0  0  0 
   16.9316   12.6491   15.3847 H   0  0  0  0  0  0 
   17.7129   14.2720   15.5127 H   0  0  0  0  0  0 
   17.4415   13.2685   17.3849 C   0  0  0  0  0  0 
   18.0254   12.2974   17.3307 H   0  0  0  0  0  0 
   18.1550   14.0581   17.7336 H   0  0  0  0  0  0 
  1  2  1  0
  2  3  1  0
  2  4  1  0
  2  5  1  0
  5  6  2  0
  5  7  1  0
  7  8  1  0
  7 36  1  0
  8  9  1  0
  8 10  1  0
  8 11  1  0
 11 12  1  0
 11 13  1  0
 11 14  1  0
 14 15  1  0
 14 16  1  0
 14 33  1  0
 16 17  2  0
 16 18  1  0
 18 19  1  0
 18 23  1  0
 19 20  1  0
 19 21  1  0
 19 22  1  0
 23 24  1  0
 23 25  1  0
 23 29  1  0
 25 26  1  0
 25 27  1  0
 25 28  1  0
 29 30  1  0
 29 31  1  0
 29 32  1  0
 33 34  1  0
 33 35  1  0
 33 36  1  0
 36 37  1  0
 36 38  1  0
M  END
>  <name>


$$$$

 SMI23D  v 9.10   1.00000     0.00000

 30 31  0  0  0  0              1 V2000
    7.4419   13.3780   10.5319 H   0  0  0  0  0  0 
    8.3786   13.9265   10.8907 C   0  0  0  0  0  0 
    8.2258   13.9787   12.3458 O   0  0  0  0  0  0 
    9.2833   14.9533   12.5863 C   0  0  0  0  0  0 
    9.8854   14.5854   13.7736 C   0  0  0  0  0  0 
    9.5976   15.1615   14.8220 O   0  0  0  0  0  0 
   10.9518   13.7480   13.6666 N   0  0  0  0  0  0 
   10.7096   12.3692   13.2266 C   0  0  0  0  0  0 
   10.2484   11.8261   14.0867 H   0  0  0  0  0  0 
   10.0454   12.3371   12.3560 H   0  0  0  0  0  0 
   12.0231   11.6971   12.8480 C   0  0  0  0  0  0 
   12.1866   10.8148   13.5115 H   0  0  0  0  0  0 
   12.0091   11.3747   11.7951 H   0  0  0  0  0  0 
   13.1199   12.6349   13.0556 N   0  0  0  0  0  0 
   13.5651   13.3827   12.0207 C   0  0  0  0  0  0 
   14.7667   13.5364   11.8627 O   0  0  0  0  0  0 
   12.5706   14.3108   11.3818 C   0  0  0  0  0  0 
   11.6725   13.7457   11.0899 H   0  0  0  0  0  0 
   12.3239   15.1224   12.0865 H   0  0  0  0  0  0 
   13.2568   15.0437    9.9159 Cl  0  0  0  0  0  0 
   13.2308   13.1899   14.4085 C   0  0  0  0  0  0 
   14.0894   13.8845   14.4397 H   0  0  0  0  0  0 
   13.4238   12.3303   15.1020 H   0  0  0  0  0  0 
   11.9462   13.8709   14.7732 C   0  0  0  0  0  0 
   12.0938   14.9514   14.9554 H   0  0  0  0  0  0 
   11.4793   13.3928   15.6628 H   0  0  0  0  0  0 
    9.6151   15.7949   11.5437 C   0  0  0  0  0  0 
    9.5423   16.8985   11.3616 H   0  0  0  0  0  0 
    8.9332   15.1074   10.2862 C   0  0  0  0  0  0 
    9.7512   15.1027    9.5156 H   0  0  0  0  0  0 
  1  2  1  0
  2  3  1  0
  2 29  2  0
  3  4  1  0
  4  5  1  0
  4 27  2  0
  5  6  2  0
  5  7  1  0
  7  8  1  0
  7 24  1  0
  8  9  1  0
  8 10  1  0
  8 11  1  0
 11 12  1  0
 11 13  1  0
 11 14  1  0
 14 15  1  0
 14 21  1  0
 15 16  2  0
 15 17  1  0
 17 18  1  0
 17 19  1  0
 17 20  1  0
 21 22  1  0
 21 23  1  0
 21 24  1  0
 24 25  1  0
 24 26  1  0
 27 28  4  0
 27 29  1  0
 29 30  1  0
M  END
>  <name>


$$$$

 SMI23D  v 9.10   1.00000     0.00000

 31 32  0  0  0  0              1 V2000
    7.2757   15.0539   11.8779 H   0  0  0  0  0  0 
    8.3031   15.0463   12.3306 C   0  0  0  0  0  0 
    8.5157   13.2503   12.7371 S   0  0  0  0  0  0 
    9.7761   13.6315   13.9704 C   0  0  0  0  0  0 
   10.9119   12.6808   13.9614 C   0  0  0  0  0  0 
   11.7126   13.3638   14.5444 H   0  0  0  0  0  0 
   10.6200   11.9321   14.8107 H   0  0  0  0  0  0 
   11.5283   12.0542   12.9546 N   0  0  0  0  0  0 
   12.8345   11.6241   13.2492 C   0  0  0  0  0  0 
   13.5721   12.4599   13.1363 H   0  0  0  0  0  0 
   12.9355   11.2496   14.3189 H   0  0  0  0  0  0 
   13.3168   10.4270   12.4209 C   0  0  0  0  0  0 
   12.8162    9.5126   12.7936 H   0  0  0  0  0  0 
   14.4104   10.3392   12.5076 H   0  0  0  0  0  0 
   12.9571   10.6217   11.0146 N   0  0  0  0  0  0 
   13.8835   11.2420   10.2249 C   0  0  0  0  0  0 
   14.5727   12.1258   10.6948 O   0  0  0  0  0  0 
   14.2696   10.5076    8.9741 C   0  0  0  0  0  0 
   14.8929    9.6379    9.2407 H   0  0  0  0  0  0 
   13.3590   10.1976    8.4355 H   0  0  0  0  0  0 
   15.2172   11.5575    7.9014 Cl  0  0  0  0  0  0 
   11.5552   10.9707   10.7927 C   0  0  0  0  0  0 
   11.3643   11.1676    9.7432 H   0  0  0  0  0  0 
   10.9075   10.1968   11.2191 H   0  0  0  0  0  0 
   11.3465   12.2900   11.6084 C   0  0  0  0  0  0 
   10.3767   12.6852   11.2852 H   0  0  0  0  0  0 
   12.1337   13.0043   11.1903 H   0  0  0  0  0  0 
    9.5602   14.9094   14.4188 C   0  0  0  0  0  0 
    9.4082   15.3832   15.4548 H   0  0  0  0  0  0 
    8.7982   15.7690   13.4153 C   0  0  0  0  0  0 
    9.4096   16.7302   13.3072 H   0  0  0  0  0  0 
  1  2  1  0
  2  3  1  0
  2 30  2  0
  3  4  1  0
  4  5  1  0
  4 28  2  0
  5  6  1  0
  5  7  1  0
  5  8  1  0
  8  9  1  0
  8 25  1  0
  9 10  1  0
  9 11  1  0
  9 12  1  0
 12 13  1  0
 12 14  1  0
 12 15  1  0
 15 16  1  0
 15 22  1  0
 16 17  2  0
 16 18  1  0
 18 19  1  0
 18 20  1  0
 18 21  1  0
 22 23  1  0
 22 24  1  0
 22 25  1  0
 25 26  1  0
 25 27  1  0
 28 29  4  0
 28 30  1  0
 30 31  1  0
M  END
>  <name>


$$$$

 SMI23D  v 9.10   1.00000     0.00000

 26 26  0  0  0  0              1 V2000
    5.7381   13.5945   12.5006 H   0  0  0  0  0  0 
    5.9096   13.6143   11.4082 C   0  0  0  0  0  0 
    4.9711   13.3800   10.8667 H   0  0  0  0  0  0 
    6.2915   14.6083   11.0964 H   0  0  0  0  0  0 
    6.9384   12.5753   11.0559 C   0  0  0  0  0  0 
    7.6462   12.6654   10.0776 O   0  0  0  0  0  0 
    7.0424   11.5177   11.8959 N   0  0  0  0  0  0 
    6.7764   10.1810   11.3803 C   0  0  0  0  0  0 
    6.5665   10.2398   10.2954 H   0  0  0  0  0  0 
    5.9103    9.7497   11.9186 H   0  0  0  0  0  0 
    8.0107    9.3123   11.6161 C   0  0  0  0  0  0 
    7.8953    8.7876   12.5974 H   0  0  0  0  0  0 
    8.1371    8.5822   10.8114 H   0  0  0  0  0  0 
    9.1677   10.1892   11.7075 N   0  0  0  0  0  0 
   10.2649    9.9788   10.9664 C   0  0  0  0  0  0 
   11.3681    9.9559   11.4954 O   0  0  0  0  0  0 
   10.1170    9.9322    9.4747 C   0  0  0  0  0  0 
    9.0934   10.2110    9.1856 H   0  0  0  0  0  0 
   10.3754    8.9181    9.1176 H   0  0  0  0  0  0 
   11.2320   11.0782    8.6946 Cl  0  0  0  0  0  0 
    9.2329   11.0887   12.8571 C   0  0  0  0  0  0 
    9.5526   10.5011   13.7434 H   0  0  0  0  0  0 
    9.9538   11.8969   12.6481 H   0  0  0  0  0  0 
    7.8464   11.6656   13.1001 C   0  0  0  0  0  0 
    7.9285   12.7439   13.3492 H   0  0  0  0  0  0 
    7.3523   11.1212   13.9318 H   0  0  0  0  0  0 
  1  2  1  0
  2  3  1  0
  2  4  1  0
  2  5  1  0
  5  6  2  0
  5  7  1  0
  7  8  1  0
  7 24  1  0
  8  9  1  0
  8 10  1  0
  8 11  1  0
 11 12  1  0
 11 13  1  0
 11 14  1  0
 14 15  1  0
 14 21  1  0
 15 16  2  0
 15 17  1  0
 17 18  1  0
 17 19  1  0
 17 20  1  0
 21 22  1  0
 21 23  1  0
 21 24  1  0
 24 25  1  0
 24 26  1  0
M  END
>  <name>


$$$$

 SMI23D  v 9.10   1.00000     0.00000

 37 38  0  0  0  0              1 V2000
   10.7636   12.2642   15.0522 H   0  0  0  0  0  0 
   10.6820   12.7355   14.2387 O   0  0  0  0  0  0 
   11.9291   13.1733   13.8642 C   0  0  0  0  0  0 
   12.2762   13.7543   15.2459 C   0  0  0  0  0  0 
   12.3685   14.7675   14.9463 H   0  0  0  0  0  0 
   13.3935   13.4060   16.1213 C   0  0  0  0  0  0 
   13.0372   12.8281   16.9998 H   0  0  0  0  0  0 
   14.2325   12.4317   15.3222 C   0  0  0  0  0  0 
   15.1327   13.0558   15.3124 H   0  0  0  0  0  0 
   14.1697   11.6742   14.1530 C   0  0  0  0  0  0 
   13.8799   10.6124   14.3390 H   0  0  0  0  0  0 
   12.9745   12.3140   13.3145 C   0  0  0  0  0  0 
   13.7166   12.9132   12.2369 N   0  0  0  0  0  0 
   13.1567   12.8620   11.4887 H   0  0  0  0  0  0 
   13.9883   14.1633   12.6604 C   0  0  0  0  0  0 
   13.0807   14.9826   12.3142 O   0  0  0  0  0  0 
   15.4291   14.6780   12.5808 C   0  0  0  0  0  0 
   15.4047   15.0306   11.4272 H   0  0  0  0  0  0 
   16.4467   13.6478   12.6959 C   0  0  0  0  0  0 
   16.0698   12.5971   12.8669 H   0  0  0  0  0  0 
   17.0339   13.5303   11.6807 H   0  0  0  0  0  0 
   17.5557   13.8765   13.7163 C   0  0  0  0  0  0 
   18.3647   14.4765   13.2593 H   0  0  0  0  0  0 
   17.9542   12.9051   14.0714 H   0  0  0  0  0  0 
   17.0153   14.5971   14.8750 N   0  0  0  0  0  0 
   17.5484   14.3262   16.0860 C   0  0  0  0  0  0 
   18.7794   14.3363   16.2001 O   0  0  0  0  0  0 
   16.6905   13.9237   17.2312 C   0  0  0  0  0  0 
   15.7456   14.4721   17.2626 H   0  0  0  0  0  0 
   17.2664   14.1406   18.1806 H   0  0  0  0  0  0 
   16.3675   12.1782   17.2626 Cl  0  0  0  0  0  0 
   16.4598   15.9007   14.6078 C   0  0  0  0  0  0 
   17.3232   16.6184   14.4870 H   0  0  0  0  0  0 
   15.8934   16.2406   15.5143 H   0  0  0  0  0  0 
   15.5810   15.9231   13.3808 C   0  0  0  0  0  0 
   14.5688   16.3401   13.7050 H   0  0  0  0  0  0 
   15.9832   16.7696   12.6970 H   0  0  0  0  0  0 
  1  2  1  0
  2  3  1  0
  3  4  1  0
  3 12  2  0
  4  5  4  0
  4  6  2  0
  6  7  4  0
  6  8  1  0
  8  9  4  0
  8 10  2  0
 10 11  4  0
 10 12  1  0
 12 13  1  0
 13 14  1  0
 13 15  1  0
 15 16  2  0
 15 17  1  0
 17 18  1  0
 17 19  1  0
 17 35  1  0
 19 20  1  0
 19 21  1  0
 19 22  1  0
 22 23  1  0
 22 24  1  0
 22 25  1  0
 25 26  1  0
 25 32  1  0
 26 27  2  0
 26 28  1  0
 28 29  1  0
 28 30  1  0
 28 31  1  0
 32 33  1  0
 32 34  1  0
 32 35  1  0
 35 36  1  0
 35 37  1  0
M  END
>  <name>


$$$$

 SMI23D  v 9.10   1.00000     0.00000

 30 31  0  0  0  0              1 V2000
    9.5016   12.5300    9.5187 H   0  0  0  0  0  0 
    9.6341   13.4041   10.1680 C   0  0  0  0  0  0 
    9.1883   13.3903   11.4053 N   0  0  0  0  0  0 
    8.8898   14.7678   11.7090 N   0  0  0  0  0  0 
    9.9324   15.3284   12.5375 C   0  0  0  0  0  0 
    9.4830   16.2996   12.9697 H   0  0  0  0  0  0 
   10.8095   15.6197   11.9770 H   0  0  0  0  0  0 
   10.2249   14.4484   13.7059 C   0  0  0  0  0  0 
    9.4150   14.4660   14.6494 O   0  0  0  0  0  0 
   11.3909   13.7579   13.7885 N   0  0  0  0  0  0 
   11.7446   12.8304   12.7149 C   0  0  0  0  0  0 
   11.0181   11.9736   12.7734 H   0  0  0  0  0  0 
   11.6474   13.3118   11.7258 H   0  0  0  0  0  0 
   13.1491   12.3153   12.8978 C   0  0  0  0  0  0 
   13.7760   12.6472   11.9988 H   0  0  0  0  0  0 
   13.1595   11.2044   12.8795 H   0  0  0  0  0  0 
   13.7791   12.7958   13.9861 O   0  0  0  0  0  0 
   13.1080   12.6755   15.1714 C   0  0  0  0  0  0 
   13.7562   13.2922   15.9171 H   0  0  0  0  0  0 
   13.1485   11.2583   15.6904 C   0  0  0  0  0  0 
   12.4413   10.5883   15.1758 H   0  0  0  0  0  0 
   14.1914   10.8550   15.5660 H   0  0  0  0  0  0 
   12.9178   11.2601   16.7906 H   0  0  0  0  0  0 
   11.7530   13.2718   15.1528 C   0  0  0  0  0  0 
   10.9485   12.5579   15.4422 H   0  0  0  0  0  0 
   11.6788   14.1690   15.8209 H   0  0  0  0  0  0 
    8.8599   15.4462   10.5280 C   0  0  0  0  0  0 
    7.8901   15.9303   10.5147 H   0  0  0  0  0  0 
    9.2116   14.7106    9.5530 C   0  0  0  0  0  0 
    9.9746   14.9954    8.7540 H   0  0  0  0  0  0 
  1  2  1  0
  2  3  2  0
  2 29  1  0
  3  4  1  0
  4  5  1  0
  4 27  1  0
  5  6  1  0
  5  7  1  0
  5  8  1  0
  8  9  2  0
  8 10  1  0
 10 11  1  0
 10 24  1  0
 11 12  1  0
 11 13  1  0
 11 14  1  0
 14 15  1  0
 14 16  1  0
 14 17  1  0
 17 18  1  0
 18 19  1  0
 18 20  1  0
 18 24  1  0
 20 21  1  0
 20 22  1  0
 20 23  1  0
 24 25  1  0
 24 26  1  0
 27 28  4  0
 27 29  2  0
 29 30  1  0
M  END
>  <name>


$$$$

 SMI23D  v 9.10   1.00000     0.00000

 35 37  0  0  0  0              1 V2000
   12.3674    8.3948    8.3707 H   0  0  0  0  0  0 
   11.6786    8.6192    9.2375 C   0  0  0  0  0  0 
   11.9316   10.0460    9.6635 C   0  0  0  0  0  0 
   12.7309   10.3621    8.9999 H   0  0  0  0  0  0 
   10.9896   11.1736    9.6617 C   0  0  0  0  0  0 
   10.6329   11.3429   11.0289 C   0  0  0  0  0  0 
   10.2647   12.4718   11.3595 O   0  0  0  0  0  0 
   11.6185   10.7771   11.8590 N   0  0  0  0  0  0 
   12.8376   11.4600   12.0310 C   0  0  0  0  0  0 
   13.7086   10.8127   11.7588 H   0  0  0  0  0  0 
   12.8825   12.3184   11.2571 H   0  0  0  0  0  0 
   13.0235   12.1046   13.3751 C   0  0  0  0  0  0 
   12.4413   13.0752   13.4073 H   0  0  0  0  0  0 
   14.1118   12.3829   13.5007 H   0  0  0  0  0  0 
   12.6032   11.2499   14.5379 C   0  0  0  0  0  0 
   11.5115   11.3595   14.7369 H   0  0  0  0  0  0 
   13.1442   11.6357   15.4693 H   0  0  0  0  0  0 
   12.9620    9.8058   14.3644 C   0  0  0  0  0  0 
   13.0498    9.3587   15.4375 H   0  0  0  0  0  0 
   13.9837    9.6803   13.9423 H   0  0  0  0  0  0 
   11.9458    9.0003   13.6395 C   0  0  0  0  0  0 
   12.4583    8.0127   13.3292 H   0  0  0  0  0  0 
   11.1791    8.6298   14.4309 H   0  0  0  0  0  0 
   11.2133    9.5689   12.4901 C   0  0  0  0  0  0 
   10.0967    9.6969   12.7832 H   0  0  0  0  0  0 
   11.1470    8.7659   11.6635 H   0  0  0  0  0  0 
    9.7165   10.6357    9.1135 C   0  0  0  0  0  0 
    9.7437   11.2590    8.1803 H   0  0  0  0  0  0 
    9.1222    9.4126    8.7616 C   0  0  0  0  0  0 
   10.2601    8.3151    9.0530 C   0  0  0  0  0  0 
    9.6216    7.4574   10.0335 O   0  0  0  0  0  0 
    8.3032    7.8829   10.2934 C   0  0  0  0  0  0 
    8.0916    7.8241   11.3463 H   0  0  0  0  0  0 
    7.6252    7.3101    9.6548 H   0  0  0  0  0  0 
    8.2235    9.2404    9.8830 O   0  0  0  0  0  0 
  1  2  1  0
  2  3  1  0
  2 30  2  0
  3  4  4  0
  3  5  2  0
  5  6  1  0
  5 27  1  0
  6  7  2  0
  6  8  1  0
  8  9  1  0
  8 24  1  0
  9 10  1  0
  9 11  1  0
  9 12  1  0
 12 13  1  0
 12 14  1  0
 12 15  1  0
 15 16  1  0
 15 17  1  0
 15 18  1  0
 18 19  1  0
 18 20  1  0
 18 21  1  0
 21 22  1  0
 21 23  1  0
 21 24  1  0
 24 25  1  0
 24 26  1  0
 27 28  4  0
 27 29  2  0
 29 30  1  0
 29 35  1  0
 30 31  1  0
 31 32  1  0
 32 33  1  0
 32 34  1  0
 32 35  1  0
M  END
>  <name>


$$$$

 SMI23D  v 9.10   1.00000     0.00000

 30 31  0  0  0  0              1 V2000
    8.3248   12.7633   10.4117 H   0  0  0  0  0  0 
    8.1841   13.8754   10.6217 C   0  0  0  0  0  0 
    7.9675   13.9154   12.4437 S   0  0  0  0  0  0 
    9.3969   15.0647   12.6382 C   0  0  0  0  0  0 
   10.0121   14.7506   13.8171 C   0  0  0  0  0  0 
    9.8109   15.4098   14.8429 O   0  0  0  0  0  0 
   11.0216   13.8416   13.7404 N   0  0  0  0  0  0 
   10.6865   12.5037   13.2371 C   0  0  0  0  0  0 
   10.1619   11.9580   14.0512 H   0  0  0  0  0  0 
   10.0461   12.5802   12.3455 H   0  0  0  0  0  0 
   11.9582   11.7540   12.8575 C   0  0  0  0  0  0 
   12.0806   10.8768   13.5375 H   0  0  0  0  0  0 
   11.9131   11.4171   11.8131 H   0  0  0  0  0  0 
   13.1006   12.6390   13.0465 N   0  0  0  0  0  0 
   13.5848   13.3517   12.0076 C   0  0  0  0  0  0 
   14.7968   13.4802   11.8831 O   0  0  0  0  0  0 
   12.6379   14.3058   11.3348 C   0  0  0  0  0  0 
   11.7585   13.7586   10.9657 H   0  0  0  0  0  0 
   12.3538   15.1010   12.0427 H   0  0  0  0  0  0 
   13.4252   15.0727    9.9366 Cl  0  0  0  0  0  0 
   13.2860   13.1631   14.4003 C   0  0  0  0  0  0 
   14.1558   13.8440   14.4073 H   0  0  0  0  0  0 
   13.4780   12.2973   15.0776 H   0  0  0  0  0  0 
   12.0286   13.8815   14.8249 C   0  0  0  0  0  0 
   12.2495   14.9419   15.0511 H   0  0  0  0  0  0 
   11.5771   13.3850   15.7099 H   0  0  0  0  0  0 
    9.5566   15.7171   11.4476 C   0  0  0  0  0  0 
    9.7265   16.8351   11.2553 H   0  0  0  0  0  0 
    8.9966   14.9754   10.2837 C   0  0  0  0  0  0 
    8.8035   15.5974    9.3537 H   0  0  0  0  0  0 
  1  2  1  0
  2  3  1  0
  2 29  2  0
  3  4  1  0
  4  5  1  0
  4 27  2  0
  5  6  2  0
  5  7  1  0
  7  8  1  0
  7 24  1  0
  8  9  1  0
  8 10  1  0
  8 11  1  0
 11 12  1  0
 11 13  1  0
 11 14  1  0
 14 15  1  0
 14 21  1  0
 15 16  2  0
 15 17  1  0
 17 18  1  0
 17 19  1  0
 17 20  1  0
 21 22  1  0
 21 23  1  0
 21 24  1  0
 24 25  1  0
 24 26  1  0
 27 28  4  0
 27 29  1  0
 29 30  1  0
M  END
>  <name>


$$$$

 SMI23D  v 9.10   1.00000     0.00000

 38 39  0  0  0  0              1 V2000
   15.3962   16.0508   16.9038 H   0  0  0  0  0  0 
   15.3528   15.0899   17.4929 C   0  0  0  0  0  0 
   13.9987   15.0610   18.1830 C   0  0  0  0  0  0 
   13.5470   15.9858   17.8678 H   0  0  0  0  0  0 
   12.9334   14.0361   18.0362 C   0  0  0  0  0  0 
   12.9641   13.1975   19.3421 C   0  0  0  0  0  0 
   14.0308   13.0296   19.5883 H   0  0  0  0  0  0 
   12.4797   13.8098   20.1109 H   0  0  0  0  0  0 
   12.4374   12.2782   19.1207 H   0  0  0  0  0  0 
   13.4330   13.1108   16.9778 C   0  0  0  0  0  0 
   12.7020   13.5365   16.2092 H   0  0  0  0  0  0 
   14.6657   12.8191   16.3027 C   0  0  0  0  0  0 
   14.9041   11.7508   16.4506 H   0  0  0  0  0  0 
   15.7200   13.7854   16.9037 C   0  0  0  0  0  0 
   16.8060   13.1227   17.5677 O   0  0  0  0  0  0 
   18.0837   13.5039   17.2235 C   0  0  0  0  0  0 
   18.5253   13.9937   18.1477 H   0  0  0  0  0  0 
   18.7017   12.6277   16.9870 H   0  0  0  0  0  0 
   18.1004   14.5021   16.1139 C   0  0  0  0  0  0 
   18.0824   15.7053   16.4016 O   0  0  0  0  0  0 
   18.1595   14.0704   14.8468 N   0  0  0  0  0  0 
   18.3036   15.1051   13.7829 C   0  0  0  0  0  0 
   18.6364   14.5901   12.8644 H   0  0  0  0  0  0 
   18.9945   15.8748   14.0936 H   0  0  0  0  0  0 
   16.8894   15.6536   13.5846 C   0  0  0  0  0  0 
   16.8857   16.1908   12.6075 H   0  0  0  0  0  0 
   16.7469   16.4478   14.3965 H   0  0  0  0  0  0 
   15.8797   14.7000   13.7116 N   0  0  0  0  0  0 
   14.7146   15.0750   13.0213 C   0  0  0  0  0  0 
   14.8313   14.9535   11.9208 H   0  0  0  0  0  0 
   13.8012   14.5194   13.3543 H   0  0  0  0  0  0 
   14.4864   16.1658   13.2321 H   0  0  0  0  0  0 
   16.2673   13.3846   13.4592 C   0  0  0  0  0  0 
   15.4099   12.6698   13.6349 H   0  0  0  0  0  0 
   16.5919   13.2455   12.3978 H   0  0  0  0  0  0 
   17.3971   12.9171   14.3831 C   0  0  0  0  0  0 
   18.0969   12.2798   13.7779 H   0  0  0  0  0  0 
   16.9916   12.3361   15.2129 H   0  0  0  0  0  0 
  1  2  1  0
  2  3  1  0
  2 14  2  0
  3  4  4  0
  3  5  2  0
  5  6  1  0
  5 10  1  0
  6  7  1  0
  6  8  1  0
  6  9  1  0
 10 11  4  0
 10 12  2  0
 12 13  4  0
 12 14  1  0
 14 15  1  0
 15 16  1  0
 16 17  1  0
 16 18  1  0
 16 19  1  0
 19 20  2  0
 19 21  1  0
 21 22  1  0
 21 36  1  0
 22 23  1  0
 22 24  1  0
 22 25  1  0
 25 26  1  0
 25 27  1  0
 25 28  1  0
 28 29  1  0
 28 33  1  0
 29 30  1  0
 29 31  1  0
 29 32  1  0
 33 34  1  0
 33 35  1  0
 33 36  1  0
 36 37  1  0
 36 38  1  0
M  END
>  <name>


$$$$

 SMI23D  v 9.10   1.00000     0.00000

 13 13  0  0  0  0              1 V2000
    5.1675    6.0262    4.9918 H   0  0  0  0  0  0 
    4.3521    5.6803    4.7964 O   0  0  0  0  0  0 
    3.9388    4.5125    5.3084 C   0  0  0  0  0  0 
    3.9841    3.6132    4.7964 H   0  0  0  0  0  0 
    4.3153    4.3723    6.8469 C   0  0  0  0  0  0 
    4.1384    3.3589    7.1564 H   0  0  0  0  0  0 
    5.0737    4.9360    7.2118 H   0  0  0  0  0  0 
    2.8888    5.1378    7.1780 S   0  0  0  0  0  0 
    2.2428    4.4554    8.1651 O   0  0  0  0  0  0 
    3.2089    6.5067    7.2118 O   0  0  0  0  0  0 
    2.3691    4.7687    5.7489 C   0  0  0  0  0  0 
    2.0171    5.5566    5.1843 H   0  0  0  0  0  0 
    1.9323    3.7951    5.7366 H   0  0  0  0  0  0 
  1  2  1  0
  2  3  1  0
  3  4  1  0
  3  5  1  0
  3 11  1  0
  5  6  1  0
  5  7  1  0
  5  8  1  0
  8  9  2  0
  8 10  2  0
  8 11  1  0
 11 12  1  0
 11 13  1  0
M  END
>  <name>


$$$$

 SMI23D  v 9.10   1.00000     0.00000

 30 31  0  0  0  0              1 V2000
    8.4556   15.2145   14.2240 H   0  0  0  0  0  0 
    9.1940   14.9972   13.4166 C   0  0  0  0  0  0 
    9.8100   13.6119   13.7962 C   0  0  0  0  0  0 
   11.2601   13.6496   14.1234 C   0  0  0  0  0  0 
   11.3900   13.6575   15.2312 H   0  0  0  0  0  0 
   11.7126   14.5860   13.7235 H   0  0  0  0  0  0 
   11.9444   12.4990   13.5533 N   0  0  0  0  0  0 
   11.7374   12.1637   12.2716 C   0  0  0  0  0  0 
   11.0877   11.1605   12.0036 O   0  0  0  0  0  0 
   12.2577   12.9474   11.3901 N   0  0  0  0  0  0 
   11.9459   12.7756   10.5096 H   0  0  0  0  0  0 
   13.3110   13.7298   11.5613 C   0  0  0  0  0  0 
   12.7691   14.6690   11.4735 H   0  0  0  0  0  0 
   14.3358   12.6084   11.5627 C   0  0  0  0  0  0 
   14.4861   11.9783   10.6092 H   0  0  0  0  0  0 
   14.3091   11.8702   12.4459 H   0  0  0  0  0  0 
   14.7938   13.9760   11.6968 C   0  0  0  0  0  0 
   15.3649   14.5059   10.8483 H   0  0  0  0  0  0 
   15.1642   14.4109   12.6898 H   0  0  0  0  0  0 
   12.4418   11.4696   14.4653 C   0  0  0  0  0  0 
   12.7386   10.5699   13.8815 H   0  0  0  0  0  0 
   13.3155   11.8719   15.0108 H   0  0  0  0  0  0 
   11.6362   11.1852   15.1740 H   0  0  0  0  0  0 
    9.4096   12.7591   12.9483 N   0  0  0  0  0  0 
    8.3708   13.1576   12.2521 O   0  0  0  0  0  0 
    8.3407   14.5744   12.1620 C   0  0  0  0  0  0 
    9.1501   14.9608   10.9323 C   0  0  0  0  0  0 
    9.7546   15.8686   11.1587 H   0  0  0  0  0  0 
    8.4609   15.1785   10.0867 H   0  0  0  0  0  0 
    9.8287   14.1253   10.6538 H   0  0  0  0  0  0 
  1  2  1  0
  2  3  1  0
  2 26  1  0
  3  4  1  0
  3 24  2  0
  4  5  1  0
  4  6  1  0
  4  7  1  0
  7  8  1  0
  7 20  1  0
  8  9  2  0
  8 10  1  0
 10 11  1  0
 10 12  1  0
 12 13  1  0
 12 14  1  0
 12 17  1  0
 14 15  1  0
 14 16  1  0
 14 17  1  0
 17 18  1  0
 17 19  1  0
 20 21  1  0
 20 22  1  0
 20 23  1  0
 24 25  1  0
 25 26  1  0
 26 27  1  0
 27 28  1  0
 27 29  1  0
 27 30  1  0
M  END
>  <name>


$$$$

 SMI23D  v 9.10   1.00000     0.00000

 35 36  0  0  0  0              1 V2000
    8.3731    8.9890    8.1578 H   0  0  0  0  0  0 
    9.4979    9.1531    8.2368 C   0  0  0  0  0  0 
    9.5947   10.5453    8.8216 C   0  0  0  0  0  0 
   10.1844   10.9896    8.0409 H   0  0  0  0  0  0 
   10.1355   10.9569   10.1107 C   0  0  0  0  0  0 
    9.3288   11.2742   10.7997 H   0  0  0  0  0  0 
   10.9174    9.7437   10.7810 C   0  0  0  0  0  0 
   12.4311   10.6210   11.0566 S   0  0  0  0  0  0 
   12.7696   11.3006    9.7613 O   0  0  0  0  0  0 
   12.0402   11.6816   12.0430 O   0  0  0  0  0  0 
   13.7416    9.9039   11.5504 N   0  0  0  0  0  0 
   14.4178   10.6390   12.5649 C   0  0  0  0  0  0 
   15.4804   10.3227   12.7100 H   0  0  0  0  0  0 
   14.4971   11.7217   12.2366 H   0  0  0  0  0  0 
   13.6652   10.5530   13.8678 C   0  0  0  0  0  0 
   13.2964   11.5355   14.1965 H   0  0  0  0  0  0 
   14.3033   10.0918   14.6544 H   0  0  0  0  0  0 
   12.4916    9.6537   13.6895 N   0  0  0  0  0  0 
   11.6425    9.6176   14.7658 C   0  0  0  0  0  0 
   12.1143    9.3587   15.8609 O   0  0  0  0  0  0 
   10.2706   10.1736   14.6028 C   0  0  0  0  0  0 
    9.5705    9.5977   15.2510 H   0  0  0  0  0  0 
   10.2629   11.2401   14.8979 H   0  0  0  0  0  0 
    9.6841   10.0496   12.9406 Cl  0  0  0  0  0  0 
   12.8285    8.3281   13.1158 C   0  0  0  0  0  0 
   11.9001    7.7959   12.8997 H   0  0  0  0  0  0 
   13.4233    7.7894   13.8873 H   0  0  0  0  0  0 
   13.6609    8.5438   11.8717 C   0  0  0  0  0  0 
   14.6903    8.0963   12.0443 H   0  0  0  0  0  0 
   13.2779    7.9468   11.0096 H   0  0  0  0  0  0 
   10.9350    8.4072   10.3645 C   0  0  0  0  0  0 
   10.2074    7.5785   11.0845 C   0  0  0  0  0  0 
    9.2312    8.1161   11.4235 N   0  0  0  0  0  0 
   10.3011    8.1538    8.9343 C   0  0  0  0  0  0 
   11.2111    7.7807    8.3362 H   0  0  0  0  0  0 
  1  2  1  0
  2  3  1  0
  2 34  2  0
  3  4  4  0
  3  5  2  0
  5  6  4  0
  5  7  1  0
  7  8  1  0
  7 31  2  0
  8  9  2  0
  8 10  2  0
  8 11  1  0
 11 12  1  0
 11 28  1  0
 12 13  1  0
 12 14  1  0
 12 15  1  0
 15 16  1  0
 15 17  1  0
 15 18  1  0
 18 19  1  0
 18 25  1  0
 19 20  2  0
 19 21  1  0
 21 22  1  0
 21 23  1  0
 21 24  1  0
 25 26  1  0
 25 27  1  0
 25 28  1  0
 28 29  1  0
 28 30  1  0
 31 32  1  0
 31 34  1  0
 32 33  3  0
 34 35  1  0
M  END
>  <name>


$$$$

 SMI23D  v 9.10   1.00000     0.00000

 32 33  0  0  0  0              1 V2000
   11.9423   12.7561    8.9995 H   0  0  0  0  0  0 
   12.4503   12.1478    9.5346 O   0  0  0  0  0  0 
   12.1031   12.4412   10.8638 C   0  0  0  0  0  0 
   12.6798   13.3234   11.1601 H   0  0  0  0  0  0 
   11.0279   12.6507   10.8640 H   0  0  0  0  0  0 
   12.3404   11.2223   11.7192 C   0  0  0  0  0  0 
   13.3442   10.7908   11.5017 H   0  0  0  0  0  0 
   11.3914   10.2880   11.5508 O   0  0  0  0  0  0 
   10.2054   10.3616   12.1557 C   0  0  0  0  0  0 
    9.8735    9.2901   12.4009 H   0  0  0  0  0  0 
    9.4290   10.7468   11.4264 H   0  0  0  0  0  0 
   10.1165   11.1636   13.4335 C   0  0  0  0  0  0 
   10.1635   10.4692   14.3176 H   0  0  0  0  0  0 
    9.0774   11.6234   13.4673 H   0  0  0  0  0  0 
   11.1049   12.1722   13.5170 N   0  0  0  0  0  0 
   10.8552   13.1759   14.3953 C   0  0  0  0  0  0 
   11.8374   13.5023   14.9671 H   0  0  0  0  0  0 
   10.2403   12.8425   15.2735 H   0  0  0  0  0  0 
   10.3711   14.4914   13.8357 C   0  0  0  0  0  0 
    8.9801   14.6967   14.4511 C   0  0  0  0  0  0 
    9.1860   15.5250   15.0569 H   0  0  0  0  0  0 
    7.6950   14.8498   13.7796 C   0  0  0  0  0  0 
    7.0983   13.9173   13.8191 H   0  0  0  0  0  0 
    8.0345   15.0634   12.3243 C   0  0  0  0  0  0 
    7.5791   16.0681   12.2628 H   0  0  0  0  0  0 
    9.1346   14.9491   11.4698 C   0  0  0  0  0  0 
    9.0547   14.0782   10.7899 H   0  0  0  0  0  0 
   10.3835   14.8030   12.4015 C   0  0  0  0  0  0 
   10.9588   15.8010   12.1574 H   0  0  0  0  0  0 
   12.3435   11.6725   13.2208 C   0  0  0  0  0  0 
   13.2345   12.3038   13.3437 H   0  0  0  0  0  0 
   12.5709   10.7034   13.7877 H   0  0  0  0  0  0 
  1  2  1  0
  2  3  1  0
  3  4  1  0
  3  5  1  0
  3  6  1  0
  6  7  1  0
  6  8  1  0
  6 30  1  0
  8  9  1  0
  9 10  1  0
  9 11  1  0
  9 12  1  0
 12 13  1  0
 12 14  1  0
 12 15  1  0
 15 16  1  0
 15 30  1  0
 16 17  1  0
 16 18  1  0
 16 19  1  0
 19 20  1  0
 19 28  2  0
 20 21  4  0
 20 22  2  0
 22 23  4  0
 22 24  1  0
 24 25  4  0
 24 26  2  0
 26 27  4  0
 26 28  1  0
 28 29  1  0
 30 31  1  0
 30 32  1  0
M  END
>  <name>


$$$$

 SMI23D  v 9.10   1.00000     0.00000

 31 32  0  0  0  0              1 V2000
    7.2757   15.0539   11.8779 H   0  0  0  0  0  0 
    8.3031   15.0463   12.3306 C   0  0  0  0  0  0 
    8.5157   13.2503   12.7371 S   0  0  0  0  0  0 
    9.7761   13.6315   13.9704 C   0  0  0  0  0  0 
   10.9119   12.6808   13.9614 C   0  0  0  0  0  0 
   11.7126   13.3638   14.5444 H   0  0  0  0  0  0 
   10.6200   11.9321   14.8107 H   0  0  0  0  0  0 
   11.5283   12.0542   12.9546 N   0  0  0  0  0  0 
   12.8345   11.6241   13.2492 C   0  0  0  0  0  0 
   13.5721   12.4599   13.1363 H   0  0  0  0  0  0 
   12.9355   11.2496   14.3189 H   0  0  0  0  0  0 
   13.3168   10.4270   12.4209 C   0  0  0  0  0  0 
   12.8162    9.5126   12.7936 H   0  0  0  0  0  0 
   14.4104   10.3392   12.5076 H   0  0  0  0  0  0 
   12.9571   10.6217   11.0146 N   0  0  0  0  0  0 
   13.8835   11.2420   10.2249 C   0  0  0  0  0  0 
   14.5727   12.1258   10.6948 O   0  0  0  0  0  0 
   14.2696   10.5076    8.9741 C   0  0  0  0  0  0 
   14.8929    9.6379    9.2407 H   0  0  0  0  0  0 
   13.3590   10.1976    8.4355 H   0  0  0  0  0  0 
   15.2172   11.5575    7.9014 Cl  0  0  0  0  0  0 
   11.5552   10.9707   10.7927 C   0  0  0  0  0  0 
   11.3643   11.1676    9.7432 H   0  0  0  0  0  0 
   10.9075   10.1968   11.2191 H   0  0  0  0  0  0 
   11.3465   12.2900   11.6084 C   0  0  0  0  0  0 
   10.3767   12.6852   11.2852 H   0  0  0  0  0  0 
   12.1337   13.0043   11.1903 H   0  0  0  0  0  0 
    9.5602   14.9094   14.4188 C   0  0  0  0  0  0 
    9.4082   15.3832   15.4548 H   0  0  0  0  0  0 
    8.7982   15.7690   13.4153 C   0  0  0  0  0  0 
    9.4096   16.7302   13.3072 H   0  0  0  0  0  0 
  1  2  1  0
  2  3  1  0
  2 30  2  0
  3  4  1  0
  4  5  1  0
  4 28  2  0
  5  6  1  0
  5  7  1  0
  5  8  1  0
  8  9  1  0
  8 25  1  0
  9 10  1  0
  9 11  1  0
  9 12  1  0
 12 13  1  0
 12 14  1  0
 12 15  1  0
 15 16  1  0
 15 22  1  0
 16 17  2  0
 16 18  1  0
 18 19  1  0
 18 20  1  0
 18 21  1  0
 22 23  1  0
 22 24  1  0
 22 25  1  0
 25 26  1  0
 25 27  1  0
 28 29  4  0
 28 30  1  0
 30 31  1  0
M  END
>  <name>


$$$$

 SMI23D  v 9.10   1.00000     0.00000

 35 35  0  0  0  0              1 V2000
    9.2235    9.5933    8.7488 H   0  0  0  0  0  0 
    9.1061   10.4417    9.1359 O   0  0  0  0  0  0 
    8.5712   10.1487   10.4137 C   0  0  0  0  0  0 
    8.7493   11.4959   11.0334 C   0  0  0  0  0  0 
    9.0407   12.1280   10.2615 H   0  0  0  0  0  0 
    9.4704   11.8631   12.2271 C   0  0  0  0  0  0 
    8.8154   12.0160   13.1281 H   0  0  0  0  0  0 
   10.4554   10.6502   12.6246 C   0  0  0  0  0  0 
   11.8563   11.2097   12.6792 C   0  0  0  0  0  0 
   12.1205   11.3394   13.7872 H   0  0  0  0  0  0 
   11.9318   12.2242   12.2273 H   0  0  0  0  0  0 
   12.9460   10.4019   12.0263 C   0  0  0  0  0  0 
   13.9151   11.0014   12.4157 H   0  0  0  0  0  0 
   13.1403    9.0589   12.5826 C   0  0  0  0  0  0 
   14.2756    8.5485   12.6645 O   0  0  0  0  0  0 
   12.2429    8.6169   13.5365 N   0  0  0  0  0  0 
   12.5351    8.9482   14.3852 H   0  0  0  0  0  0 
   11.8789    7.2039   13.4091 C   0  0  0  0  0  0 
   12.8268    6.6165   13.3879 H   0  0  0  0  0  0 
   11.2558    6.8955   14.2547 H   0  0  0  0  0  0 
   11.1741    7.0042   12.1395 C   0  0  0  0  0  0 
   10.5769    6.8737   11.1070 C   0  0  0  0  0  0 
   11.4910    7.2715    9.9436 Br  0  0  0  0  0  0 
   13.0202   10.5411   10.6352 N   0  0  0  0  0  0 
   13.3604   11.3445   10.2092 H   0  0  0  0  0  0 
   12.4628    9.7686    9.6747 C   0  0  0  0  0  0 
   11.5915   10.3358    8.9706 O   0  0  0  0  0  0 
   13.4837    8.9305    8.8947 C   0  0  0  0  0  0 
   14.1445    9.6404    8.3669 H   0  0  0  0  0  0 
   14.0366    8.3203    9.6168 H   0  0  0  0  0  0 
   12.9186    8.3122    8.1770 H   0  0  0  0  0  0 
   10.0604    9.2471   12.4373 C   0  0  0  0  0  0 
    9.7304    8.6359   13.3473 H   0  0  0  0  0  0 
    9.0877    9.0411   11.2476 C   0  0  0  0  0  0 
    8.1834    8.3570   11.5446 H   0  0  0  0  0  0 
  1  2  1  0
  2  3  1  0
  3  4  1  0
  3 34  2  0
  4  5  4  0
  4  6  2  0
  6  7  4  0
  6  8  1  0
  8  9  1  0
  8 32  2  0
  9 10  1  0
  9 11  1  0
  9 12  1  0
 12 13  1  0
 12 14  1  0
 12 24  1  0
 14 15  2  0
 14 16  1  0
 16 17  1  0
 16 18  1  0
 18 19  1  0
 18 20  1  0
 18 21  1  0
 21 22  3  0
 22 23  1  0
 24 25  1  0
 24 26  1  0
 26 27  2  0
 26 28  1  0
 28 29  1  0
 28 30  1  0
 28 31  1  0
 32 33  4  0
 32 34  1  0
 34 35  1  0
M  END
>  <name>


$$$$

 SMI23D  v 9.10   1.00000     0.00000

 30 31  0  0  0  0              1 V2000
   10.2443   12.1069   12.5020 H   0  0  0  0  0  0 
   10.5371   13.2216   12.7625 C   0  0  0  0  0  0 
   11.1822   14.0850   11.8976 C   0  0  0  0  0  0 
   12.5434   14.4799   11.9055 C   0  0  0  0  0  0 
   13.0016   15.2583   11.1288 O   0  0  0  0  0  0 
   13.0493   14.2760   13.1337 N   0  0  0  0  0  0 
   12.5701   14.8288   13.7645 H   0  0  0  0  0  0 
   12.9251   12.9900   13.4918 N   0  0  0  0  0  0 
   13.4288   12.8208   14.2920 H   0  0  0  0  0  0 
   13.3764   12.1789   12.5088 C   0  0  0  0  0  0 
   14.1609   12.5975   11.6738 O   0  0  0  0  0  0 
   13.3031   10.6996   12.8184 C   0  0  0  0  0  0 
   12.4900   10.5313   13.5404 H   0  0  0  0  0  0 
   13.1406   10.1465   11.8831 H   0  0  0  0  0  0 
   14.8224   10.1483   13.5460 Cl  0  0  0  0  0  0 
   10.2048   15.6599   12.0593 S   0  0  0  0  0  0 
    8.7395   14.9548   12.7118 C   0  0  0  0  0  0 
    9.4239   13.8219   13.2807 C   0  0  0  0  0  0 
    9.7261   13.4845   14.9235 C   0  0  0  0  0  0 
    9.1826   12.6220   14.9956 H   0  0  0  0  0  0 
   10.7439   13.6107   14.9563 H   0  0  0  0  0  0 
    8.9736   14.7366   15.6492 C   0  0  0  0  0  0 
    8.2570   14.1642   16.3331 H   0  0  0  0  0  0 
    9.8043   15.1045   16.3344 H   0  0  0  0  0  0 
    8.2578   15.9384   15.0807 C   0  0  0  0  0  0 
    7.2254   15.9599   15.5279 H   0  0  0  0  0  0 
    8.7850   16.8688   15.4480 H   0  0  0  0  0  0 
    8.0273   16.2047   13.5456 C   0  0  0  0  0  0 
    7.0228   15.9850   13.2833 H   0  0  0  0  0  0 
    8.5650   17.0023   13.2007 H   0  0  0  0  0  0 
  1  2  1  0
  2  3  2  0
  2 18  1  0
  3  4  1  0
  3 16  1  0
  4  5  2  0
  4  6  1  0
  6  7  1  0
  6  8  1  0
  8  9  1  0
  8 10  1  0
 10 11  2  0
 10 12  1  0
 12 13  1  0
 12 14  1  0
 12 15  1  0
 16 17  1  0
 17 18  3  0
 17 28  1  0
 18 19  1  0
 19 20  1  0
 19 21  1  0
 19 22  1  0
 22 23  1  0
 22 24  1  0
 22 25  1  0
 25 26  1  0
 25 27  1  0
 25 28  1  0
 28 29  1  0
 28 30  1  0
M  END
>  <name>


$$$$

 SMI23D  v 9.10   1.00000     0.00000

 29 30  0  0  0  0              1 V2000
   14.0265   11.3268   14.0002 H   0  0  0  0  0  0 
   15.0080   11.1577   13.4963 C   0  0  0  0  0  0 
   14.8671    9.8203   12.5247 C   0  0  0  0  0  0 
   13.5766    9.4901   12.6305 F   0  0  0  0  0  0 
   15.3114   10.1419   11.1385 C   0  0  0  0  0  0 
   16.1869    9.4209   10.7841 H   0  0  0  0  0  0 
   15.5003   11.4245   10.3679 C   0  0  0  0  0  0 
   14.4687   11.8059    9.2999 C   0  0  0  0  0  0 
   13.5673   10.8238    8.7849 C   0  0  0  0  0  0 
   12.9925   11.2506    7.9166 H   0  0  0  0  0  0 
   14.2098    9.9852    8.3135 H   0  0  0  0  0  0 
   12.6120   10.1309    9.7273 C   0  0  0  0  0  0 
   12.3293   10.8091   10.5634 H   0  0  0  0  0  0 
   13.1854    9.2476   10.1909 H   0  0  0  0  0  0 
   11.4593    9.5773    9.1126 N   0  0  0  0  0  0 
   11.0309    8.7836    9.4473 H   0  0  0  0  0  0 
   10.8630    9.9603    7.9721 C   0  0  0  0  0  0 
   11.1969    9.3794    6.9219 O   0  0  0  0  0  0 
    9.3894   10.3321    8.1139 C   0  0  0  0  0  0 
    9.1720   10.4626    9.1843 H   0  0  0  0  0  0 
    9.2211   11.2642    7.5506 H   0  0  0  0  0  0 
    8.7961    9.5006    7.6870 H   0  0  0  0  0  0 
   13.9533   13.0964    9.8350 C   0  0  0  0  0  0 
   12.9101   13.3553    9.8495 H   0  0  0  0  0  0 
   14.7931   13.6247   10.8810 N   0  0  0  0  0  0 
   14.2094   13.8331   11.5960 H   0  0  0  0  0  0 
   15.7061   12.6817   11.3204 C   0  0  0  0  0  0 
   15.6482   12.2740   12.7706 C   0  0  0  0  0  0 
   16.6832   12.6097   13.2153 H   0  0  0  0  0  0 
  1  2  1  0
  2  3  1  0
  2 28  2  0
  3  4  1  0
  3  5  2  0
  5  6  4  0
  5  7  1  0
  7  8  1  0
  7 27  2  0
  8  9  1  0
  8 23  1  0
  9 10  1  0
  9 11  1  0
  9 12  1  0
 12 13  1  0
 12 14  1  0
 12 15  1  0
 15 16  1  0
 15 17  1  0
 17 18  2  0
 17 19  1  0
 19 20  1  0
 19 21  1  0
 19 22  1  0
 23 24  4  0
 23 25  1  0
 25 26  4  0
 25 27  1  0
 27 28  1  0
 28 29  1  0
M  END
>  <name>


$$$$

 SMI23D  v 9.10   1.00000     0.00000

 17 17  0  0  0  0              1 V2000
    5.5118    9.7234    6.2614 H   0  0  0  0  0  0 
    6.0613    8.8300    5.7940 C   0  0  0  0  0  0 
    4.9626    7.7896    5.6276 C   0  0  0  0  0  0 
    4.0989    8.2200    6.1368 H   0  0  0  0  0  0 
    5.0185    6.3738    6.0612 C   0  0  0  0  0  0 
    5.3278    5.4296    4.6569 S   0  0  0  0  0  0 
    5.2760    6.2729    3.4534 O   0  0  0  0  0  0 
    4.2814    4.3923    4.6098 O   0  0  0  0  0  0 
    6.7657    4.6617    4.6481 N   0  0  0  0  0  0 
    7.5173    5.3408    4.5365 H   0  0  0  0  0  0 
    6.8145    4.1514    3.7410 H   0  0  0  0  0  0 
    6.2213    6.2418    6.9210 C   0  0  0  0  0  0 
    5.5899    6.1153    7.8630 H   0  0  0  0  0  0 
    7.3658    7.0063    7.2223 C   0  0  0  0  0  0 
    8.3001    6.4851    7.0498 H   0  0  0  0  0  0 
    7.2508    8.3328    6.4757 C   0  0  0  0  0  0 
    8.7556    8.3933    5.2858 Br  0  0  0  0  0  0 
  1  2  1  0
  2  3  1  0
  2 16  2  0
  3  4  4  0
  3  5  2  0
  5  6  1  0
  5 12  1  0
  6  7  2  0
  6  8  2  0
  6  9  1  0
  9 10  1  0
  9 11  1  0
 12 13  4  0
 12 14  2  0
 14 15  4  0
 14 16  1  0
 16 17  1  0
M  END
>  <name>


$$$$

 SMI23D  v 9.10   1.00000     0.00000

 33 34  0  0  0  0              1 V2000
   16.7231   11.4477   11.4824 H   0  0  0  0  0  0 
   15.7105   11.7002   10.9484 C   0  0  0  0  0  0 
   15.9160   13.1658   10.6304 C   0  0  0  0  0  0 
   15.5293   13.0985    9.6221 H   0  0  0  0  0  0 
   15.2517   14.3831   11.2474 C   0  0  0  0  0  0 
   16.0091   14.9381   11.7558 H   0  0  0  0  0  0 
   14.4469   13.7333   12.3907 C   0  0  0  0  0  0 
   14.7990   14.2473   13.3953 N   0  3  0  0  0  0 
   15.7741   13.9245   14.0610 O   0  0  0  0  0  0 
   14.2895   15.2940   14.0694 O   0  5  0  0  0  0 
   13.6868   12.5811   12.5190 C   0  0  0  0  0  0 
   12.3772   12.8763   12.0282 N   0  0  0  0  0  0 
   12.2031   13.0625   10.6101 C   0  0  0  0  0  0 
   13.1323   13.4292   10.1448 H   0  0  0  0  0  0 
   11.8685   12.1145   10.1186 H   0  0  0  0  0  0 
   11.0936   14.0922   10.3214 C   0  0  0  0  0  0 
   11.4812   15.1079   10.5217 H   0  0  0  0  0  0 
   10.7751   14.0004    9.2715 H   0  0  0  0  0  0 
    9.9842   13.8033   11.2080 N   0  0  0  0  0  0 
    8.8483   13.2551   10.7534 C   0  0  0  0  0  0 
    7.8019   13.8799   10.7730 O   0  0  0  0  0  0 
    8.9405   11.8926   10.1280 C   0  0  0  0  0  0 
    9.3048   11.9908    9.0919 H   0  0  0  0  0  0 
    9.6074   11.2555   10.7305 H   0  0  0  0  0  0 
    7.3427   11.1170   10.0722 Cl  0  0  0  0  0  0 
   10.2076   13.9449   12.6350 C   0  0  0  0  0  0 
    9.9097   15.0046   12.9082 H   0  0  0  0  0  0 
    9.5790   13.2430   13.1968 H   0  0  0  0  0  0 
   11.6742   13.7678   12.9553 C   0  0  0  0  0  0 
   11.7965   13.3614   13.9846 H   0  0  0  0  0  0 
   12.1736   14.7671   12.8955 H   0  0  0  0  0  0 
   14.4380   11.5251   11.7492 C   0  0  0  0  0  0 
   13.7403   10.8544   11.1361 H   0  0  0  0  0  0 
  1  2  1  0
  2  3  1  0
  2 32  2  0
  3  4  4  0
  3  5  2  0
  5  6  4  0
  5  7  1  0
  7  8  4  0
  7 11  2  0
  8  9  2  0
  8 10  1  0
 11 12  1  0
 11 32  1  0
 12 13  1  0
 12 29  1  0
 13 14  1  0
 13 15  1  0
 13 16  1  0
 16 17  1  0
 16 18  1  0
 16 19  1  0
 19 20  1  0
 19 26  1  0
 20 21  2  0
 20 22  1  0
 22 23  1  0
 22 24  1  0
 22 25  1  0
 26 27  1  0
 26 28  1  0
 26 29  1  0
 29 30  1  0
 29 31  1  0
 32 33  1  0
M  END
>  <name>


$$$$

 SMI23D  v 9.10   1.00000     0.00000

 30 31  0  0  0  0              1 V2000
    9.3922   12.2232   12.1621 H   0  0  0  0  0  0 
   10.4846   12.4602   11.8096 C   0  0  0  0  0  0 
   11.3888   11.4223   11.4670 C   0  0  0  0  0  0 
   12.1119   10.8441   12.0773 H   0  0  0  0  0  0 
   12.5093   12.3254   10.2665 S   0  0  0  0  0  0 
   12.5171   11.6088    9.0842 O   0  0  0  0  0  0 
   13.6700   12.6568   10.9747 O   0  0  0  0  0  0 
   11.5444   13.8640   10.0449 C   0  0  0  0  0  0 
   10.9899   13.7024    9.0268 H   0  0  0  0  0  0 
   12.1594   14.7019    9.8829 H   0  0  0  0  0  0 
   10.5360   13.8257   11.1003 C   0  0  0  0  0  0 
    9.5155   14.0178   10.6567 H   0  0  0  0  0  0 
   10.7625   14.8025   12.2654 N   0  0  0  0  0  0 
   11.7811   15.6484   12.1233 C   0  0  0  0  0  0 
   11.6188   16.7792   11.6901 O   0  0  0  0  0  0 
   13.1612   15.1686   12.4887 C   0  0  0  0  0  0 
   13.1125   14.1673   12.9340 H   0  0  0  0  0  0 
   13.6167   15.8961   13.2041 H   0  0  0  0  0  0 
   14.2696   15.1000   11.0980 Cl  0  0  0  0  0  0 
    9.6595   15.1379   12.7660 C   0  0  0  0  0  0 
    9.8488   14.9785   14.2675 C   0  0  0  0  0  0 
   10.9220   15.0728   14.3420 H   0  0  0  0  0  0 
    9.3256   15.8872   15.2947 C   0  0  0  0  0  0 
    8.5033   15.3292   15.8779 H   0  0  0  0  0  0 
    8.5587   16.9530   14.5656 C   0  0  0  0  0  0 
    9.3442   17.7307   14.8271 H   0  0  0  0  0  0 
    8.1344   17.1990   13.2123 C   0  0  0  0  0  0 
    7.0187   17.3648   13.2389 H   0  0  0  0  0  0 
    8.5203   15.9550   12.4054 C   0  0  0  0  0  0 
    7.5833   15.3778   12.0152 H   0  0  0  0  0  0 
  1  2  1  0
  2  3  2  0
  2 11  1  0
  3  4  1  0
  3  5  1  0
  5  6  2  0
  5  7  2  0
  5  8  1  0
  8  9  1  0
  8 10  1  0
  8 11  1  0
 11 12  1  0
 11 13  1  0
 13 14  1  0
 13 20  1  0
 14 15  2  0
 14 16  1  0
 16 17  1  0
 16 18  1  0
 16 19  1  0
 20 21  1  0
 20 29  2  0
 21 22  4  0
 21 23  2  0
 23 24  4  0
 23 25  1  0
 25 26  4  0
 25 27  2  0
 27 28  4  0
 27 29  1  0
 29 30  1  0
M  END
>  <name>


$$$$

 SMI23D  v 9.10   1.00000     0.00000

 35 36  0  0  0  0              1 V2000
   10.9233    9.7967    7.6571 H   0  0  0  0  0  0 
   10.8194    9.5170    8.7820 C   0  0  0  0  0  0 
   11.7671   10.3878    9.5425 C   0  0  0  0  0  0 
   12.1985   11.0129    8.7606 H   0  0  0  0  0  0 
   12.9470    9.9473   10.3226 C   0  0  0  0  0  0 
   12.5961   10.1892   11.6213 N   0  0  0  0  0  0 
   13.1744   11.5736   11.9532 C   0  0  0  0  0  0 
   12.7577   12.2513   11.1816 H   0  0  0  0  0  0 
   14.2554   11.4657   11.8602 H   0  0  0  0  0  0 
   12.7433   12.0093   13.3198 C   0  0  0  0  0  0 
   11.8401   12.6569   13.2741 H   0  0  0  0  0  0 
   13.5549   12.5410   13.8489 H   0  0  0  0  0  0 
   12.3864   10.8056   14.1034 N   0  0  0  0  0  0 
   13.4622   10.0316   14.4770 C   0  0  0  0  0  0 
   14.1345    9.5505   13.5683 O   0  0  0  0  0  0 
   14.1190   10.4198   15.7748 C   0  0  0  0  0  0 
   14.6827    9.5490   16.1595 H   0  0  0  0  0  0 
   14.7947   11.2742   15.6031 H   0  0  0  0  0  0 
   12.9158   10.8842   16.9842 Cl  0  0  0  0  0  0 
   11.2004   10.0957   13.6153 C   0  0  0  0  0  0 
   10.3086   10.6828   13.9505 H   0  0  0  0  0  0 
   11.1762    9.0904   14.0522 H   0  0  0  0  0  0 
   11.2267   10.0479   12.0984 C   0  0  0  0  0  0 
   10.6318   10.9128   11.7042 H   0  0  0  0  0  0 
   10.8004    9.1033   11.7305 H   0  0  0  0  0  0 
   12.9789    8.4813   10.2426 C   0  0  0  0  0  0 
   13.9351    8.4931    9.5990 H   0  0  0  0  0  0 
   12.1458    7.4340    9.7618 C   0  0  0  0  0  0 
   11.9511    6.6926   10.5516 H   0  0  0  0  0  0 
   10.8809    8.0938    9.1860 C   0  0  0  0  0  0 
    9.6449    7.6192    9.7605 O   0  0  0  0  0  0 
    8.9861    6.7384    8.8854 C   0  0  0  0  0  0 
    8.0192    6.4931    9.3393 H   0  0  0  0  0  0 
    8.8642    7.2602    7.9199 H   0  0  0  0  0  0 
    9.6260    5.8457    8.7732 H   0  0  0  0  0  0 
  1  2  1  0
  2  3  1  0
  2 30  2  0
  3  4  4  0
  3  5  2  0
  5  6  1  0
  5 26  1  0
  6  7  1  0
  6 23  1  0
  7  8  1  0
  7  9  1  0
  7 10  1  0
 10 11  1  0
 10 12  1  0
 10 13  1  0
 13 14  1  0
 13 20  1  0
 14 15  2  0
 14 16  1  0
 16 17  1  0
 16 18  1  0
 16 19  1  0
 20 21  1  0
 20 22  1  0
 20 23  1  0
 23 24  1  0
 23 25  1  0
 26 27  4  0
 26 28  2  0
 28 29  4  0
 28 30  1  0
 30 31  1  0
 31 32  1  0
 32 33  1  0
 32 34  1  0
 32 35  1  0
M  END
>  <name>


$$$$

 SMI23D  v 9.10   1.00000     0.00000

 15 13  0  0  0  0              1 V2000
  103.5060    1.4148    1.0642 H   0  0  0  0  0  0 
  102.7866    0.0689    0.9553 Cl  0  0  0  0  0  0 
  105.6994    2.8967    5.4896 H   0  0  0  0  0  0 
  106.4864    3.2985    6.0000 N   0  0  0  0  0  0 
  107.4789    3.8685    5.5764 C   0  0  0  0  0  0 
  108.6422    3.1739    5.8775 N   0  0  0  0  0  0 
  109.3382    3.4485    5.3109 H   0  0  0  0  0  0 
  108.7317    3.1117    6.8153 H   0  0  0  0  0  0 
  107.6196    5.3690    5.7580 C   0  0  0  0  0  0 
  107.5979    5.8326    4.7430 H   0  0  0  0  0  0 
  108.5595    5.6153    6.2701 H   0  0  0  0  0  0 
  106.4318    5.8753    6.5629 C   0  0  0  0  0  0 
  106.6020    6.9441    6.8332 H   0  0  0  0  0  0 
  106.3202    5.2817    7.4958 H   0  0  0  0  0  0 
  105.5060    5.7947    5.9525 H   0  0  0  0  0  0 
  1  2  1  0
  3  4  1  0
  4  5  2  0
  5  6  1  0
  5  9  1  0
  6  7  1  0
  6  8  1  0
  9 10  1  0
  9 11  1  0
  9 12  1  0
 12 13  1  0
 12 14  1  0
 12 15  1  0
M  END
>  <name>


$$$$

 SMI23D  v 9.10   1.00000     0.00000

 31 32  0  0  0  0              1 V2000
   10.9248   15.1008   10.5989 H   0  0  0  0  0  0 
   10.2146   15.1580   11.5633 C   0  0  0  0  0  0 
    9.0422   14.4322   11.6731 C   0  0  0  0  0  0 
    7.5301   15.3249   11.5605 Cl  0  0  0  0  0  0 
    9.0182   13.6301   13.2977 S   0  0  0  0  0  0 
   10.7564   14.0717   13.6651 C   0  0  0  0  0  0 
   11.3202   12.7917   14.2903 C   0  0  0  0  0  0 
   12.2966   13.1239   14.8146 H   0  0  0  0  0  0 
   10.6534   12.5672   15.1539 H   0  0  0  0  0  0 
   11.5460   11.7818   13.4195 N   0  0  0  0  0  0 
   12.3169   12.1229   12.3004 C   0  0  0  0  0  0 
   13.0266   12.9499   12.4638 H   0  0  0  0  0  0 
   11.6752   12.3872   11.4126 H   0  0  0  0  0  0 
   13.1438   10.8794   11.8788 C   0  0  0  0  0  0 
   13.7706   11.1136   11.0234 H   0  0  0  0  0  0 
   13.7256   10.5343   12.7511 H   0  0  0  0  0  0 
   12.1533    9.8671   11.5343 N   0  0  0  0  0  0 
   12.1446    9.3653   10.2748 C   0  0  0  0  0  0 
   12.9893    8.5552    9.9334 O   0  0  0  0  0  0 
   11.3227   10.1160    9.2643 C   0  0  0  0  0  0 
   11.8822   11.0065    8.9324 H   0  0  0  0  0  0 
   11.0989    9.4475    8.4144 H   0  0  0  0  0  0 
    9.7869   10.6541    9.9661 Cl  0  0  0  0  0  0 
   11.0810    9.5936   12.4316 C   0  0  0  0  0  0 
   10.2325    9.1173   11.8843 H   0  0  0  0  0  0 
   11.4300    8.8796   13.2251 H   0  0  0  0  0  0 
   10.5558   10.8558   13.1320 C   0  0  0  0  0  0 
   10.0517   10.4591   14.0673 H   0  0  0  0  0  0 
    9.7316   11.2839   12.4986 H   0  0  0  0  0  0 
   11.2252   14.9032   12.7041 C   0  0  0  0  0  0 
   11.7883   15.8938   12.8348 H   0  0  0  0  0  0 
  1  2  1  0
  2  3  2  0
  2 30  1  0
  3  4  1  0
  3  5  1  0
  5  6  1  0
  6  7  1  0
  6 30  2  0
  7  8  1  0
  7  9  1  0
  7 10  1  0
 10 11  1  0
 10 27  1  0
 11 12  1  0
 11 13  1  0
 11 14  1  0
 14 15  1  0
 14 16  1  0
 14 17  1  0
 17 18  1  0
 17 24  1  0
 18 19  2  0
 18 20  1  0
 20 21  1  0
 20 22  1  0
 20 23  1  0
 24 25  1  0
 24 26  1  0
 24 27  1  0
 27 28  1  0
 27 29  1  0
 30 31  1  0
M  END
>  <name>


$$$$

 SMI23D  v 9.10   1.00000     0.00000

 13 13  0  0  0  0              1 V2000
    5.1675    6.0262    4.9918 H   0  0  0  0  0  0 
    4.3521    5.6803    4.7964 O   0  0  0  0  0  0 
    3.9388    4.5125    5.3084 C   0  0  0  0  0  0 
    3.9841    3.6132    4.7964 H   0  0  0  0  0  0 
    4.3153    4.3723    6.8469 C   0  0  0  0  0  0 
    4.1384    3.3589    7.1564 H   0  0  0  0  0  0 
    5.0737    4.9360    7.2118 H   0  0  0  0  0  0 
    2.8888    5.1378    7.1780 S   0  0  0  0  0  0 
    2.2428    4.4554    8.1651 O   0  0  0  0  0  0 
    3.2089    6.5067    7.2118 O   0  0  0  0  0  0 
    2.3691    4.7687    5.7489 C   0  0  0  0  0  0 
    2.0171    5.5566    5.1843 H   0  0  0  0  0  0 
    1.9323    3.7951    5.7366 H   0  0  0  0  0  0 
  1  2  1  0
  2  3  1  0
  3  4  1  0
  3  5  1  0
  3 11  1  0
  5  6  1  0
  5  7  1  0
  5  8  1  0
  8  9  2  0
  8 10  2  0
  8 11  1  0
 11 12  1  0
 11 13  1  0
M  END
>  <name>


$$$$

 SMI23D  v 9.10   1.00000     0.00000

 32 33  0  0  0  0              1 V2000
   11.9423   12.7561    8.9995 H   0  0  0  0  0  0 
   12.4503   12.1478    9.5346 O   0  0  0  0  0  0 
   12.1031   12.4412   10.8638 C   0  0  0  0  0  0 
   12.6798   13.3234   11.1601 H   0  0  0  0  0  0 
   11.0279   12.6507   10.8640 H   0  0  0  0  0  0 
   12.3404   11.2223   11.7192 C   0  0  0  0  0  0 
   13.3442   10.7908   11.5017 H   0  0  0  0  0  0 
   11.3914   10.2880   11.5508 O   0  0  0  0  0  0 
   10.2054   10.3616   12.1557 C   0  0  0  0  0  0 
    9.8735    9.2901   12.4009 H   0  0  0  0  0  0 
    9.4290   10.7468   11.4264 H   0  0  0  0  0  0 
   10.1165   11.1636   13.4335 C   0  0  0  0  0  0 
   10.1635   10.4692   14.3176 H   0  0  0  0  0  0 
    9.0774   11.6234   13.4673 H   0  0  0  0  0  0 
   11.1049   12.1722   13.5170 N   0  0  0  0  0  0 
   10.8552   13.1759   14.3953 C   0  0  0  0  0  0 
   11.8374   13.5023   14.9671 H   0  0  0  0  0  0 
   10.2403   12.8425   15.2735 H   0  0  0  0  0  0 
   10.3711   14.4914   13.8357 C   0  0  0  0  0  0 
    8.9801   14.6967   14.4511 C   0  0  0  0  0  0 
    9.1860   15.5250   15.0569 H   0  0  0  0  0  0 
    7.6950   14.8498   13.7796 C   0  0  0  0  0  0 
    7.0983   13.9173   13.8191 H   0  0  0  0  0  0 
    8.0345   15.0634   12.3243 C   0  0  0  0  0  0 
    7.5791   16.0681   12.2628 H   0  0  0  0  0  0 
    9.1346   14.9491   11.4698 C   0  0  0  0  0  0 
    9.0547   14.0782   10.7899 H   0  0  0  0  0  0 
   10.3835   14.8030   12.4015 C   0  0  0  0  0  0 
   10.9588   15.8010   12.1574 H   0  0  0  0  0  0 
   12.3435   11.6725   13.2208 C   0  0  0  0  0  0 
   13.2345   12.3038   13.3437 H   0  0  0  0  0  0 
   12.5709   10.7034   13.7877 H   0  0  0  0  0  0 
  1  2  1  0
  2  3  1  0
  3  4  1  0
  3  5  1  0
  3  6  1  0
  6  7  1  0
  6  8  1  0
  6 30  1  0
  8  9  1  0
  9 10  1  0
  9 11  1  0
  9 12  1  0
 12 13  1  0
 12 14  1  0
 12 15  1  0
 15 16  1  0
 15 30  1  0
 16 17  1  0
 16 18  1  0
 16 19  1  0
 19 20  1  0
 19 28  2  0
 20 21  4  0
 20 22  2  0
 22 23  4  0
 22 24  1  0
 24 25  4  0
 24 26  2  0
 26 27  4  0
 26 28  1  0
 28 29  1  0
 30 31  1  0
 30 32  1  0
M  END
>  <name>


$$$$

 SMI23D  v 9.10   1.00000     0.00000

 31 32  0  0  0  0              1 V2000
    7.2775   14.9903   11.6865 H   0  0  0  0  0  0 
    8.2366   14.8351   12.2699 C   0  0  0  0  0  0 
    8.2401   13.0099   12.4965 S   0  0  0  0  0  0 
    9.0971   13.1202   14.0733 C   0  0  0  0  0  0 
   10.5102   12.0675   14.0955 S   0  0  0  0  0  0 
   10.0602   10.6996   14.2279 O   0  0  0  0  0  0 
   11.2641   12.5192   15.2991 O   0  0  0  0  0  0 
   11.5034   12.1952   12.8264 N   0  0  0  0  0  0 
   12.6706   11.4707   12.9954 C   0  0  0  0  0  0 
   12.7248   10.9893   14.0156 H   0  0  0  0  0  0 
   13.5642   12.1579   12.9168 H   0  0  0  0  0  0 
   12.8509   10.3445   11.9795 C   0  0  0  0  0  0 
   11.9907    9.6570   12.0219 H   0  0  0  0  0  0 
   13.8008    9.8279   12.1181 H   0  0  0  0  0  0 
   12.8452   11.0051   10.6582 N   0  0  0  0  0  0 
   14.0345   11.4178   10.1606 C   0  0  0  0  0  0 
   14.9634   11.6776   10.9081 O   0  0  0  0  0  0 
   14.2507   11.2895    8.6790 C   0  0  0  0  0  0 
   14.7696   10.3365    8.4741 H   0  0  0  0  0  0 
   13.2909   11.3480    8.1505 H   0  0  0  0  0  0 
   15.2905   12.6074    8.0904 Cl  0  0  0  0  0  0 
   11.6504   11.7605   10.3593 C   0  0  0  0  0  0 
   11.9256   12.6680    9.7718 H   0  0  0  0  0  0 
   11.0081   11.1117    9.6896 H   0  0  0  0  0  0 
   10.8633   12.1359   11.5915 C   0  0  0  0  0  0 
   10.4295   13.1800   11.3726 H   0  0  0  0  0  0 
    9.9704   11.4432   11.6624 H   0  0  0  0  0  0 
    9.1195   14.4087   14.5093 C   0  0  0  0  0  0 
    8.7428   14.8173   15.5433 H   0  0  0  0  0  0 
    8.6133   15.4202   13.4755 C   0  0  0  0  0  0 
    9.3251   16.3137   13.5495 H   0  0  0  0  0  0 
  1  2  1  0
  2  3  1  0
  2 30  2  0
  3  4  1  0
  4  5  1  0
  4 28  2  0
  5  6  2  0
  5  7  2  0
  5  8  1  0
  8  9  1  0
  8 25  1  0
  9 10  1  0
  9 11  1  0
  9 12  1  0
 12 13  1  0
 12 14  1  0
 12 15  1  0
 15 16  1  0
 15 22  1  0
 16 17  2  0
 16 18  1  0
 18 19  1  0
 18 20  1  0
 18 21  1  0
 22 23  1  0
 22 24  1  0
 22 25  1  0
 25 26  1  0
 25 27  1  0
 28 29  4  0
 28 30  1  0
 30 31  1  0
M  END
>  <name>


$$$$

 SMI23D  v 9.10   1.00000     0.00000

 21 21  0  0  0  0              1 V2000
   10.9563    8.0229    7.7001 H   0  0  0  0  0  0 
   10.3414    7.6253    8.6165 C   0  0  0  0  0  0 
    9.7073    8.8827    9.0110 N   0  0  0  0  0  0 
    8.4228    8.6323    9.0978 C   0  0  0  0  0  0 
    7.9544    9.3224    9.8284 H   0  0  0  0  0  0 
    7.3710    7.6866    8.4690 C   0  0  0  0  0  0 
    6.6177    8.5098    7.5882 N   0  0  0  0  0  0 
    7.2056    9.0680    7.0949 H   0  0  0  0  0  0 
    5.8525    9.2703    8.4061 C   0  0  0  0  0  0 
    5.5151   10.3887    8.0170 O   0  0  0  0  0  0 
    5.0815    8.5597    9.4798 C   0  0  0  0  0  0 
    4.5881    7.6764    9.0285 H   0  0  0  0  0  0 
    4.3152    9.2558    9.8907 H   0  0  0  0  0  0 
    5.7605    8.2469   10.2962 H   0  0  0  0  0  0 
    8.0007    6.3943    8.1758 C   0  0  0  0  0  0 
    7.3507    5.0496    8.4891 C   0  0  0  0  0  0 
    6.2646    5.1702    8.3478 H   0  0  0  0  0  0 
    7.5436    4.7883    9.5497 H   0  0  0  0  0  0 
    7.7576    4.3052    7.7996 H   0  0  0  0  0  0 
    9.4761    6.4796    8.5134 C   0  0  0  0  0  0 
    9.8562    5.6118    9.1929 H   0  0  0  0  0  0 
  1  2  1  0
  2  3  1  0
  2 20  2  0
  3  4  2  0
  4  5  4  0
  4  6  1  0
  6  7  1  0
  6 15  2  0
  7  8  1  0
  7  9  1  0
  9 10  2  0
  9 11  1  0
 11 12  1  0
 11 13  1  0
 11 14  1  0
 15 16  1  0
 15 20  1  0
 16 17  1  0
 16 18  1  0
 16 19  1  0
 20 21  1  0
M  END
>  <name>


$$$$

 SMI23D  v 9.10   1.00000     0.00000

 31 32  0  0  0  0              1 V2000
    9.1930   14.0591    9.8731 H   0  0  0  0  0  0 
    9.4086   13.9751   10.9886 C   0  0  0  0  0  0 
   10.3342   15.1423   11.1491 N   0  0  0  0  0  0 
   11.4269   14.7797   11.6954 C   0  0  0  0  0  0 
   11.6627   15.4840   12.5638 H   0  0  0  0  0  0 
   12.0723   13.5368   11.7738 C   0  0  0  0  0  0 
   12.7560   13.6767   12.6015 H   0  0  0  0  0  0 
   11.4079   12.2756   11.7906 C   0  0  0  0  0  0 
   11.8385   11.3275   10.6859 C   0  0  0  0  0  0 
   11.0146   10.9723   10.0675 H   0  0  0  0  0  0 
   12.6073   11.8462   10.0587 H   0  0  0  0  0  0 
   12.5174   10.1339   11.3782 C   0  0  0  0  0  0 
   12.2032    9.2043   10.8538 H   0  0  0  0  0  0 
   13.6107   10.2552   11.3169 H   0  0  0  0  0  0 
   12.0874   10.0704   12.7636 N   0  0  0  0  0  0 
   11.9508    9.1910   13.1538 H   0  0  0  0  0  0 
   12.6044   10.8759   13.7060 C   0  0  0  0  0  0 
   13.6802   11.4284   13.5201 O   0  0  0  0  0  0 
   11.5045   11.6377   14.3038 C   0  0  0  0  0  0 
   11.3048   10.6868   15.4853 C   0  0  0  0  0  0 
   10.2270   10.5975   15.3576 H   0  0  0  0  0  0 
   11.5701   10.9578   16.9365 C   0  0  0  0  0  0 
   12.3845   10.3181   17.2345 H   0  0  0  0  0  0 
   11.9772   12.3841   17.0172 C   0  0  0  0  0  0 
   12.9660   12.2964   17.5472 H   0  0  0  0  0  0 
   12.0426   13.5125   16.1659 C   0  0  0  0  0  0 
   11.2628   14.2931   16.4881 H   0  0  0  0  0  0 
   11.7678   12.9988   14.7622 C   0  0  0  0  0  0 
   10.7859   13.7947   14.2336 F   0  0  0  0  0  0 
    9.9691   12.7965   11.5677 C   0  0  0  0  0  0 
    9.3405   12.2458   12.3618 H   0  0  0  0  0  0 
  1  2  1  0
  2  3  1  0
  2 30  2  0
  3  4  2  0
  4  5  4  0
  4  6  1  0
  6  7  4  0
  6  8  2  0
  8  9  1  0
  8 30  1  0
  9 10  1  0
  9 11  1  0
  9 12  1  0
 12 13  1  0
 12 14  1  0
 12 15  1  0
 15 16  1  0
 15 17  1  0
 17 18  2  0
 17 19  1  0
 19 20  1  0
 19 28  2  0
 20 21  4  0
 20 22  2  0
 22 23  4  0
 22 24  1  0
 24 25  4  0
 24 26  2  0
 26 27  4  0
 26 28  1  0
 28 29  1  0
 30 31  1  0
M  END
>  <name>


$$$$

 SMI23D  v 9.10   1.00000     0.00000

 35 36  0  0  0  0              1 V2000
    7.7691    8.1551   12.3705 H   0  0  0  0  0  0 
    8.1540    9.1451   12.8477 C   0  0  0  0  0  0 
    9.0600    9.6960   11.7688 C   0  0  0  0  0  0 
    8.6799   10.7320   11.8570 H   0  0  0  0  0  0 
   10.5492    9.7580   11.7973 C   0  0  0  0  0  0 
   10.8452    9.1278   10.9417 H   0  0  0  0  0  0 
   11.1247    9.3270   13.1574 C   0  0  0  0  0  0 
   12.1335    8.3444   12.9490 N   0  0  0  0  0  0 
   11.6870    7.5572   12.6773 H   0  0  0  0  0  0 
   13.2271    8.6311   12.3908 C   0  0  0  0  0  0 
   14.2117    7.8876   12.6912 O   0  0  0  0  0  0 
   13.5282    9.8228   11.9166 N   0  0  0  0  0  0 
   14.4028   10.7045   12.7455 C   0  0  0  0  0  0 
   15.4469   10.4996   12.4717 H   0  0  0  0  0  0 
   14.2055   10.4971   13.7977 H   0  0  0  0  0  0 
   14.0416   12.1592   12.4021 C   0  0  0  0  0  0 
   14.1063   12.7577   13.3292 H   0  0  0  0  0  0 
   14.7711   12.5397   11.6524 H   0  0  0  0  0  0 
   12.6506   12.1681   11.8333 C   0  0  0  0  0  0 
   11.9555   11.6398   12.5218 H   0  0  0  0  0  0 
   12.1001   13.5747   11.7090 C   0  0  0  0  0  0 
   12.5635   14.4825   12.4017 O   0  0  0  0  0  0 
   10.7254   13.5547   11.5784 N   0  0  0  0  0  0 
   10.3526   13.5568   12.4529 H   0  0  0  0  0  0 
   10.4718   14.1932   10.9324 H   0  0  0  0  0  0 
   12.6524   11.5242   10.4548 C   0  0  0  0  0  0 
   11.6260   11.3499   10.0992 H   0  0  0  0  0  0 
   13.1698   12.2254    9.7422 H   0  0  0  0  0  0 
   13.4442   10.2259   10.5205 C   0  0  0  0  0  0 
   14.5016   10.4554   10.1718 H   0  0  0  0  0  0 
   13.0505    9.4447    9.8732 H   0  0  0  0  0  0 
   10.3027    9.2082   14.4030 C   0  0  0  0  0  0 
   10.5467    9.9795   15.2438 H   0  0  0  0  0  0 
    8.7856    9.1499   14.1704 C   0  0  0  0  0  0 
    8.1867    9.8630   14.8687 H   0  0  0  0  0  0 
  1  2  1  0
  2  3  1  0
  2 34  2  0
  3  4  4  0
  3  5  2  0
  5  6  4  0
  5  7  1  0
  7  8  1  0
  7 32  2  0
  8  9  1  0
  8 10  1  0
 10 11  2  0
 10 12  1  0
 12 13  1  0
 12 29  1  0
 13 14  1  0
 13 15  1  0
 13 16  1  0
 16 17  1  0
 16 18  1  0
 16 19  1  0
 19 20  1  0
 19 21  1  0
 19 26  1  0
 21 22  2  0
 21 23  1  0
 23 24  1  0
 23 25  1  0
 26 27  1  0
 26 28  1  0
 26 29  1  0
 29 30  1  0
 29 31  1  0
 32 33  4  0
 32 34  1  0
 34 35  1  0
M  END
>  <name>


$$$$

 SMI23D  v 9.10   1.00000     0.00000

 26 26  0  0  0  0              1 V2000
    5.7381   13.5945   12.5006 H   0  0  0  0  0  0 
    5.9096   13.6143   11.4082 C   0  0  0  0  0  0 
    4.9711   13.3800   10.8667 H   0  0  0  0  0  0 
    6.2915   14.6083   11.0964 H   0  0  0  0  0  0 
    6.9384   12.5753   11.0559 C   0  0  0  0  0  0 
    7.6462   12.6654   10.0776 O   0  0  0  0  0  0 
    7.0424   11.5177   11.8959 N   0  0  0  0  0  0 
    6.7764   10.1810   11.3803 C   0  0  0  0  0  0 
    6.5665   10.2398   10.2954 H   0  0  0  0  0  0 
    5.9103    9.7497   11.9186 H   0  0  0  0  0  0 
    8.0107    9.3123   11.6161 C   0  0  0  0  0  0 
    7.8953    8.7876   12.5974 H   0  0  0  0  0  0 
    8.1371    8.5822   10.8114 H   0  0  0  0  0  0 
    9.1677   10.1892   11.7075 N   0  0  0  0  0  0 
   10.2649    9.9788   10.9664 C   0  0  0  0  0  0 
   11.3681    9.9559   11.4954 O   0  0  0  0  0  0 
   10.1170    9.9322    9.4747 C   0  0  0  0  0  0 
    9.0934   10.2110    9.1856 H   0  0  0  0  0  0 
   10.3754    8.9181    9.1176 H   0  0  0  0  0  0 
   11.2320   11.0782    8.6946 Cl  0  0  0  0  0  0 
    9.2329   11.0887   12.8571 C   0  0  0  0  0  0 
    9.5526   10.5011   13.7434 H   0  0  0  0  0  0 
    9.9538   11.8969   12.6481 H   0  0  0  0  0  0 
    7.8464   11.6656   13.1001 C   0  0  0  0  0  0 
    7.9285   12.7439   13.3492 H   0  0  0  0  0  0 
    7.3523   11.1212   13.9318 H   0  0  0  0  0  0 
  1  2  1  0
  2  3  1  0
  2  4  1  0
  2  5  1  0
  5  6  2  0
  5  7  1  0
  7  8  1  0
  7 24  1  0
  8  9  1  0
  8 10  1  0
  8 11  1  0
 11 12  1  0
 11 13  1  0
 11 14  1  0
 14 15  1  0
 14 21  1  0
 15 16  2  0
 15 17  1  0
 17 18  1  0
 17 19  1  0
 17 20  1  0
 21 22  1  0
 21 23  1  0
 21 24  1  0
 24 25  1  0
 24 26  1  0
M  END
>  <name>


$$$$

 SMI23D  v 9.10   1.00000     0.00000

 37 39  0  0  0  0              1 V2000
   14.5239   12.0892    9.8650 H   0  0  0  0  0  0 
   14.5402   12.8720   10.7328 C   0  0  0  0  0  0 
   13.2219   12.9207   11.1460 N   0  0  0  0  0  0 
   13.2576   12.0924   12.2173 C   0  0  0  0  0  0 
   14.1351   12.0694   13.5712 C   0  0  0  0  0  0 
   15.5153   12.1954   13.1555 C   0  0  0  0  0  0 
   16.3700   11.5512   13.3590 H   0  0  0  0  0  0 
   15.6097   12.7605   11.6826 C   0  0  0  0  0  0 
   16.3369   13.6523   11.8007 H   0  0  0  0  0  0 
   13.3178   12.8078   14.5687 C   0  0  0  0  0  0 
   13.1859   12.4650   15.9539 C   0  0  0  0  0  0 
   13.8226   11.6439   16.3396 H   0  0  0  0  0  0 
   12.0968   12.1679   16.1931 H   0  0  0  0  0  0 
   13.4195   13.6894   16.8385 C   0  0  0  0  0  0 
   12.9161   13.7235   17.9582 O   0  0  0  0  0  0 
   14.5743   14.3835   16.6298 N   0  0  0  0  0  0 
   14.9382   14.8177   15.3255 C   0  0  0  0  0  0 
   15.4904   14.0029   14.8102 H   0  0  0  0  0  0 
   14.0654   15.1588   14.7385 H   0  0  0  0  0  0 
   15.9285   16.0075   15.3779 C   0  0  0  0  0  0 
   15.3251   16.9384   15.5258 H   0  0  0  0  0  0 
   16.2911   16.0468   14.2825 H   0  0  0  0  0  0 
   16.9175   15.8312   16.2608 N   0  0  0  0  0  0 
   17.9975   16.6993   16.2805 C   0  0  0  0  0  0 
   17.8705   17.4834   17.0850 H   0  0  0  0  0  0 
   18.1698   17.2485   15.3222 H   0  0  0  0  0  0 
   18.9692   16.1560   16.5010 H   0  0  0  0  0  0 
   16.9059   14.8820   17.2538 C   0  0  0  0  0  0 
   17.3808   15.3144   18.2147 H   0  0  0  0  0  0 
   17.5821   14.0098   16.9767 H   0  0  0  0  0  0 
   15.5688   14.3185   17.6813 C   0  0  0  0  0  0 
   15.1888   14.8678   18.5740 H   0  0  0  0  0  0 
   15.7000   13.2378   17.9631 H   0  0  0  0  0  0 
   11.9532   13.0541   13.8739 C   0  0  0  0  0  0 
   11.7453   14.1519   13.7354 H   0  0  0  0  0  0 
   11.9754   12.3483   12.6436 N   0  0  0  0  0  0 
   11.5540   11.5059   12.8296 H   0  0  0  0  0  0 
  1  2  1  0
  2  3  1  0
  2  8  2  0
  3  4  2  0
  4  5  1  0
  4 36  1  0
  5  6  2  0
  5 10  1  0
  6  7  4  0
  6  8  1  0
  8  9  1  0
 10 11  1  0
 10 34  1  0
 11 12  1  0
 11 13  1  0
 11 14  1  0
 14 15  2  0
 14 16  1  0
 16 17  1  0
 16 31  1  0
 17 18  1  0
 17 19  1  0
 17 20  1  0
 20 21  1  0
 20 22  1  0
 20 23  1  0
 23 24  1  0
 23 28  1  0
 24 25  1  0
 24 26  1  0
 24 27  1  0
 28 29  1  0
 28 30  1  0
 28 31  1  0
 31 32  1  0
 31 33  1  0
 34 35  4  0
 34 36  1  0
 36 37  1  0
M  END
>  <name>


$$$$

 SMI23D  v 9.10   1.00000     0.00000

 27 28  0  0  0  0              1 V2000
    8.2656   15.9781    9.7890 H   0  0  0  0  0  0 
    9.1706   15.2653    9.9395 C   0  0  0  0  0  0 
    8.6076   13.9523   10.1284 O   0  0  0  0  0  0 
    9.6095   13.3997   11.0177 C   0  0  0  0  0  0 
    9.8578   11.8790   10.6296 C   0  0  0  0  0  0 
   10.4654   11.9052    9.7299 H   0  0  0  0  0  0 
    8.8554   11.4620   10.4513 H   0  0  0  0  0  0 
   10.4683   11.3261   11.7279 N   0  0  0  0  0  0 
    9.9081   11.3001   12.5570 H   0  0  0  0  0  0 
   11.2706   10.1725   11.5597 C   0  0  0  0  0  0 
   11.2350    9.6920   10.5889 H   0  0  0  0  0  0 
   10.6718    9.3455   12.2136 H   0  0  0  0  0  0 
   12.4890   10.2622   12.3337 C   0  0  0  0  0  0 
   13.3846   11.2797   11.6729 C   0  0  0  0  0  0 
   12.9687   11.3877   10.6744 H   0  0  0  0  0  0 
   14.8564   11.1650   11.4209 C   0  0  0  0  0  0 
   15.3403   11.9429   12.1151 H   0  0  0  0  0  0 
   15.2280    9.8215   11.9492 C   0  0  0  0  0  0 
   16.1665   10.0391   12.4811 H   0  0  0  0  0  0 
   14.6526    8.7083   12.5777 C   0  0  0  0  0  0 
   14.2892    7.8498   11.5511 F   0  0  0  0  0  0 
   13.2174    9.1906   12.9977 C   0  0  0  0  0  0 
   13.3171    9.2459   14.1555 H   0  0  0  0  0  0 
   10.6582   14.2610   11.4372 C   0  0  0  0  0  0 
   10.9090   14.5811   12.5073 H   0  0  0  0  0  0 
   10.3223   15.6178   10.7050 C   0  0  0  0  0  0 
   11.3021   15.9789   10.2881 H   0  0  0  0  0  0 
  1  2  1  0
  2  3  1  0
  2 26  2  0
  3  4  1  0
  4  5  1  0
  4 24  2  0
  5  6  1  0
  5  7  1  0
  5  8  1  0
  8  9  1  0
  8 10  1  0
 10 11  1  0
 10 12  1  0
 10 13  1  0
 13 14  1  0
 13 22  2  0
 14 15  4  0
 14 16  2  0
 16 17  4  0
 16 18  1  0
 18 19  4  0
 18 20  2  0
 20 21  1  0
 20 22  1  0
 22 23  1  0
 24 25  4  0
 24 26  1  0
 26 27  1  0
M  END
>  <name>


$$$$

 SMI23D  v 9.10   1.00000     0.00000

 30 31  0  0  0  0              1 V2000
    8.4783   12.1729   13.1448 H   0  0  0  0  0  0 
    8.6855   12.4840   12.1020 C   0  0  0  0  0  0 
   10.1096   12.6211   12.0013 N   0  0  0  0  0  0 
   10.5932   13.7899   11.7186 C   0  0  0  0  0  0 
   11.6020   13.9526   12.6749 N   0  0  0  0  0  0 
   11.2112   13.5795   14.0378 C   0  0  0  0  0  0 
   10.1338   13.8339   14.1753 H   0  0  0  0  0  0 
   11.3548   12.4877   14.1539 H   0  0  0  0  0  0 
   11.8117   14.1387   14.7756 H   0  0  0  0  0  0 
   12.9587   13.7085   12.2423 C   0  0  0  0  0  0 
   13.6181   13.6232   13.1474 H   0  0  0  0  0  0 
   13.0894   12.4341   11.4370 C   0  0  0  0  0  0 
   12.9203   12.6327   10.3583 H   0  0  0  0  0  0 
   12.3799   11.6610   11.7990 H   0  0  0  0  0  0 
   14.1364   12.0329   11.5622 H   0  0  0  0  0  0 
   13.4454   14.8995   11.4186 C   0  0  0  0  0  0 
   13.5236   15.7875   12.0876 H   0  0  0  0  0  0 
   12.7177   15.1093   10.6083 H   0  0  0  0  0  0 
   14.4411   14.6673   10.9896 H   0  0  0  0  0  0 
    9.9248   15.0613   11.3006 C   0  0  0  0  0  0 
   10.0376   16.2977   12.1382 C   0  0  0  0  0  0 
   10.7146   16.2642   12.9857 H   0  0  0  0  0  0 
    8.7068   16.6866   12.3806 N   0  0  0  0  0  0 
    7.7728   15.7031   12.0461 N   0  0  0  0  0  0 
    6.9056   15.5621   13.1732 C   0  0  0  0  0  0 
    7.5063   15.6187   14.1196 H   0  0  0  0  0  0 
    6.3497   14.6120   13.1409 H   0  0  0  0  0  0 
    6.1713   16.4196   13.1941 H   0  0  0  0  0  0 
    8.3455   14.7576   11.3371 C   0  0  0  0  0  0 
    8.1466   13.5103   11.6244 N   0  0  0  0  0  0 
  1  2  1  0
  2  3  1  0
  2 30  2  0
  3  4  2  0
  4  5  1  0
  4 20  1  0
  5  6  1  0
  5 10  1  0
  6  7  1  0
  6  8  1  0
  6  9  1  0
 10 11  1  0
 10 12  1  0
 10 16  1  0
 12 13  1  0
 12 14  1  0
 12 15  1  0
 16 17  1  0
 16 18  1  0
 16 19  1  0
 20 21  1  0
 20 29  2  0
 21 22  4  0
 21 23  1  0
 23 24  1  0
 24 25  1  0
 24 29  1  0
 25 26  1  0
 25 27  1  0
 25 28  1  0
 29 30  1  0
M  END
>  <name>


$$$$

 SMI23D  v 9.10   1.00000     0.00000

 25 26  0  0  0  0              1 V2000
    7.3490    8.1288   10.0471 H   0  0  0  0  0  0 
    6.8121    7.2573    9.5645 C   0  0  0  0  0  0 
    7.3934    6.0507   10.2874 C   0  0  0  0  0  0 
    6.3994    5.6509   10.5470 H   0  0  0  0  0  0 
    8.1680    4.9654    9.6458 C   0  0  0  0  0  0 
    9.0818    4.7909   10.0931 H   0  0  0  0  0  0 
    8.2633    5.1795    8.2113 C   0  0  0  0  0  0 
    9.7748    5.9545    8.2370 S   0  0  0  0  0  0 
    9.5992    6.9007    6.9560 C   0  0  0  0  0  0 
    9.8104    8.2458    7.1430 N   0  0  0  0  0  0 
   10.7305    8.4185    7.2835 H   0  0  0  0  0  0 
    9.4364    8.8072    5.9416 C   0  0  0  0  0  0 
    9.9361    8.2850    4.9380 O   0  0  0  0  0  0 
    8.0315    9.3358    5.8800 C   0  0  0  0  0  0 
    8.0362   10.2770    5.2911 H   0  0  0  0  0  0 
    7.3688    8.5997    5.3910 H   0  0  0  0  0  0 
    7.3999    9.6908    7.4904 Cl  0  0  0  0  0  0 
    8.2650    6.7167    6.7162 N   0  0  0  0  0  0 
    7.5888    6.1220    7.5197 C   0  0  0  0  0  0 
    6.7361    7.1792    8.1381 C   0  0  0  0  0  0 
    5.6049    6.9057    7.4184 O   0  0  0  0  0  0 
    4.4949    7.7308    7.6204 C   0  0  0  0  0  0 
    4.6873    8.3503    8.5141 H   0  0  0  0  0  0 
    4.3670    8.3619    6.7238 H   0  0  0  0  0  0 
    3.6151    7.0795    7.7743 H   0  0  0  0  0  0 
  1  2  1  0
  2  3  1  0
  2 20  2  0
  3  4  4  0
  3  5  2  0
  5  6  4  0
  5  7  1  0
  7  8  1  0
  7 19  3  0
  8  9  2  0
  9 10  1  0
  9 18  1  0
 10 11  1  0
 10 12  1  0
 12 13  2  0
 12 14  1  0
 14 15  1  0
 14 16  1  0
 14 17  1  0
 18 19  1  0
 19 20  1  0
 20 21  1  0
 21 22  1  0
 22 23  1  0
 22 24  1  0
 22 25  1  0
M  END
>  <name>


$$$$

 SMI23D  v 9.10   1.00000     0.00000

 39 40  0  0  0  0              1 V2000
   15.3547   15.1630   17.8521 H   0  0  0  0  0  0 
   15.3827   15.6414   16.8574 C   0  0  0  0  0  0 
   14.8290   16.5985   16.8657 H   0  0  0  0  0  0 
   17.0733   15.9886   16.4557 Cl  0  0  0  0  0  0 
   14.7616   14.7224   15.8476 C   0  0  0  0  0  0 
   13.5663   14.5442   15.7714 O   0  0  0  0  0  0 
   15.6044   14.1576   14.9413 N   0  0  0  0  0  0 
   16.6098   13.2206   15.4585 C   0  0  0  0  0  0 
   16.8603   13.5016   16.4970 H   0  0  0  0  0  0 
   16.1593   12.1998   15.4431 H   0  0  0  0  0  0 
   17.8325   13.2591   14.5761 C   0  0  0  0  0  0 
   18.6456   13.8342   15.1005 H   0  0  0  0  0  0 
   18.2074   12.2124   14.4172 H   0  0  0  0  0  0 
   17.5579   13.9003   13.2353 C   0  0  0  0  0  0 
   18.3470   13.5005   12.5083 H   0  0  0  0  0  0 
   17.7455   15.3602   13.3159 C   0  0  0  0  0  0 
   18.8741   15.8484   13.4192 O   0  0  0  0  0  0 
   16.7554   16.1984   12.8395 N   0  0  0  0  0  0 
   16.2355   17.1444   13.8209 C   0  0  0  0  0  0 
   17.0952   17.4823   14.4537 H   0  0  0  0  0  0 
   15.4762   16.6655   14.4528 H   0  0  0  0  0  0 
   15.6499   18.3501   13.1075 C   0  0  0  0  0  0 
   14.7546   18.0729   12.5256 H   0  0  0  0  0  0 
   15.3485   19.1071   13.8849 H   0  0  0  0  0  0 
   16.7074   18.9695   12.2176 C   0  0  0  0  0  0 
   16.2604   19.8436   11.6714 H   0  0  0  0  0  0 
   17.5326   19.3715   12.8725 H   0  0  0  0  0  0 
   17.2762   17.9855   11.2368 C   0  0  0  0  0  0 
   18.4019   18.0060   11.2955 H   0  0  0  0  0  0 
   16.9983   18.3052   10.1905 H   0  0  0  0  0  0 
   16.7983   16.5653   11.4464 C   0  0  0  0  0  0 
   15.7942   16.4193   10.9827 H   0  0  0  0  0  0 
   17.5151   15.8757   10.9069 H   0  0  0  0  0  0 
   16.2174   13.5172   12.6821 C   0  0  0  0  0  0 
   16.2125   12.3993   12.5044 H   0  0  0  0  0  0 
   16.0583   14.0086   11.6917 H   0  0  0  0  0  0 
   15.0786   13.8618   13.6124 C   0  0  0  0  0  0 
   14.3931   12.9800   13.7119 H   0  0  0  0  0  0 
   14.5027   14.7245   13.2334 H   0  0  0  0  0  0 
  1  2  1  0
  2  3  1  0
  2  4  1  0
  2  5  1  0
  5  6  2  0
  5  7  1  0
  7  8  1  0
  7 37  1  0
  8  9  1  0
  8 10  1  0
  8 11  1  0
 11 12  1  0
 11 13  1  0
 11 14  1  0
 14 15  1  0
 14 16  1  0
 14 34  1  0
 16 17  2  0
 16 18  1  0
 18 19  1  0
 18 31  1  0
 19 20  1  0
 19 21  1  0
 19 22  1  0
 22 23  1  0
 22 24  1  0
 22 25  1  0
 25 26  1  0
 25 27  1  0
 25 28  1  0
 28 29  1  0
 28 30  1  0
 28 31  1  0
 31 32  1  0
 31 33  1  0
 34 35  1  0
 34 36  1  0
 34 37  1  0
 37 38  1  0
 37 39  1  0
M  END
>  <name>


$$$$

 SMI23D  v 9.10   1.00000     0.00000

 34 36  0  0  0  0              1 V2000
   14.6676   13.6804   13.7868 H   0  0  0  0  0  0 
   14.3791   14.1593   14.7679 C   0  0  0  0  0  0 
   12.9593   13.7657   15.0632 C   0  0  0  0  0  0 
   12.6911   13.1427   14.2297 H   0  0  0  0  0  0 
   11.7981   14.6491   15.2611 C   0  0  0  0  0  0 
   11.5017   14.6076   16.3816 H   0  0  0  0  0  0 
   12.2285   16.0404   15.0470 C   0  0  0  0  0  0 
   11.6907   16.0774   13.5302 S   0  0  0  0  0  0 
   12.7424   17.1070   12.9038 C   0  0  0  0  0  0 
   12.9726   17.0945   11.4700 C   0  0  0  0  0  0 
   13.3035   18.2169   11.2203 H   0  0  0  0  0  0 
   11.7500   16.8693   10.6434 C   0  0  0  0  0  0 
   10.8299   17.1944   11.2026 H   0  0  0  0  0  0 
   11.7950   17.5096    9.7028 H   0  0  0  0  0  0 
   11.5598   15.5004   10.2034 N   0  0  0  0  0  0 
   10.3312   14.9551   10.1987 C   0  0  0  0  0  0 
    9.6449   14.9947   11.2096 O   0  0  0  0  0  0 
    9.7784   14.4070    8.9212 C   0  0  0  0  0  0 
    9.3908   13.3827    9.1092 H   0  0  0  0  0  0 
    8.9542   15.0625    8.5715 H   0  0  0  0  0  0 
   10.9894   14.3143    7.6428 Cl  0  0  0  0  0  0 
   12.6942   14.7413    9.7214 C   0  0  0  0  0  0 
   13.0511   15.1636    8.7620 H   0  0  0  0  0  0 
   12.4049   13.6766    9.5939 H   0  0  0  0  0  0 
   13.8117   14.8233   10.7561 C   0  0  0  0  0  0 
   14.7176   14.3145   10.3411 H   0  0  0  0  0  0 
   13.4929   14.3127   11.6832 H   0  0  0  0  0  0 
   14.1554   16.2732   11.0352 C   0  0  0  0  0  0 
   14.9574   16.3069   11.8164 H   0  0  0  0  0  0 
   14.5952   16.7220   10.0975 H   0  0  0  0  0  0 
   13.6994   17.0496   13.8132 N   0  0  0  0  0  0 
   13.5411   16.5000   14.9173 C   0  0  0  0  0  0 
   14.6854   15.5583   14.9408 C   0  0  0  0  0  0 
   15.2873   15.8714   15.8571 H   0  0  0  0  0  0 
  1  2  1  0
  2  3  1  0
  2 33  2  0
  3  4  4  0
  3  5  2  0
  5  6  4  0
  5  7  1  0
  7  8  1  0
  7 32  3  0
  8  9  2  0
  9 10  1  0
  9 31  1  0
 10 11  1  0
 10 12  1  0
 10 28  1  0
 12 13  1  0
 12 14  1  0
 12 15  1  0
 15 16  1  0
 15 22  1  0
 16 17  2  0
 16 18  1  0
 18 19  1  0
 18 20  1  0
 18 21  1  0
 22 23  1  0
 22 24  1  0
 22 25  1  0
 25 26  1  0
 25 27  1  0
 25 28  1  0
 28 29  1  0
 28 30  1  0
 31 32  1  0
 32 33  1  0
 33 34  1  0
M  END
>  <name>


$$$$

 SMI23D  v 9.10   1.00000     0.00000

 37 39  0  0  0  0              1 V2000
   14.5239   12.0892    9.8650 H   0  0  0  0  0  0 
   14.5402   12.8720   10.7328 C   0  0  0  0  0  0 
   13.2219   12.9207   11.1460 N   0  0  0  0  0  0 
   13.2576   12.0924   12.2173 C   0  0  0  0  0  0 
   14.1351   12.0694   13.5712 C   0  0  0  0  0  0 
   15.5153   12.1954   13.1555 C   0  0  0  0  0  0 
   16.3700   11.5512   13.3590 H   0  0  0  0  0  0 
   15.6097   12.7605   11.6826 C   0  0  0  0  0  0 
   16.3369   13.6523   11.8007 H   0  0  0  0  0  0 
   13.3178   12.8078   14.5687 C   0  0  0  0  0  0 
   13.1859   12.4650   15.9539 C   0  0  0  0  0  0 
   13.8226   11.6439   16.3396 H   0  0  0  0  0  0 
   12.0968   12.1679   16.1931 H   0  0  0  0  0  0 
   13.4195   13.6894   16.8385 C   0  0  0  0  0  0 
   12.9161   13.7235   17.9582 O   0  0  0  0  0  0 
   14.5743   14.3835   16.6298 N   0  0  0  0  0  0 
   14.9382   14.8177   15.3255 C   0  0  0  0  0  0 
   15.4904   14.0029   14.8102 H   0  0  0  0  0  0 
   14.0654   15.1588   14.7385 H   0  0  0  0  0  0 
   15.9285   16.0075   15.3779 C   0  0  0  0  0  0 
   15.3251   16.9384   15.5258 H   0  0  0  0  0  0 
   16.2911   16.0468   14.2825 H   0  0  0  0  0  0 
   16.9175   15.8312   16.2608 N   0  0  0  0  0  0 
   17.9975   16.6993   16.2805 C   0  0  0  0  0  0 
   17.8705   17.4834   17.0850 H   0  0  0  0  0  0 
   18.1698   17.2485   15.3222 H   0  0  0  0  0  0 
   18.9692   16.1560   16.5010 H   0  0  0  0  0  0 
   16.9059   14.8820   17.2538 C   0  0  0  0  0  0 
   17.3808   15.3144   18.2147 H   0  0  0  0  0  0 
   17.5821   14.0098   16.9767 H   0  0  0  0  0  0 
   15.5688   14.3185   17.6813 C   0  0  0  0  0  0 
   15.1888   14.8678   18.5740 H   0  0  0  0  0  0 
   15.7000   13.2378   17.9631 H   0  0  0  0  0  0 
   11.9532   13.0541   13.8739 C   0  0  0  0  0  0 
   11.7453   14.1519   13.7354 H   0  0  0  0  0  0 
   11.9754   12.3483   12.6436 N   0  0  0  0  0  0 
   11.5540   11.5059   12.8296 H   0  0  0  0  0  0 
  1  2  1  0
  2  3  1  0
  2  8  2  0
  3  4  2  0
  4  5  1  0
  4 36  1  0
  5  6  2  0
  5 10  1  0
  6  7  4  0
  6  8  1  0
  8  9  1  0
 10 11  1  0
 10 34  1  0
 11 12  1  0
 11 13  1  0
 11 14  1  0
 14 15  2  0
 14 16  1  0
 16 17  1  0
 16 31  1  0
 17 18  1  0
 17 19  1  0
 17 20  1  0
 20 21  1  0
 20 22  1  0
 20 23  1  0
 23 24  1  0
 23 28  1  0
 24 25  1  0
 24 26  1  0
 24 27  1  0
 28 29  1  0
 28 30  1  0
 28 31  1  0
 31 32  1  0
 31 33  1  0
 34 35  4  0
 34 36  1  0
 36 37  1  0
M  END
>  <name>


$$$$

 SMI23D  v 9.10   1.00000     0.00000

 30 31  0  0  0  0              1 V2000
    9.5016   12.5300    9.5187 H   0  0  0  0  0  0 
    9.6341   13.4041   10.1680 C   0  0  0  0  0  0 
    9.1883   13.3903   11.4053 N   0  0  0  0  0  0 
    8.8898   14.7678   11.7090 N   0  0  0  0  0  0 
    9.9324   15.3284   12.5375 C   0  0  0  0  0  0 
    9.4830   16.2996   12.9697 H   0  0  0  0  0  0 
   10.8095   15.6197   11.9770 H   0  0  0  0  0  0 
   10.2249   14.4484   13.7059 C   0  0  0  0  0  0 
    9.4150   14.4660   14.6494 O   0  0  0  0  0  0 
   11.3909   13.7579   13.7885 N   0  0  0  0  0  0 
   11.7446   12.8304   12.7149 C   0  0  0  0  0  0 
   11.0181   11.9736   12.7734 H   0  0  0  0  0  0 
   11.6474   13.3118   11.7258 H   0  0  0  0  0  0 
   13.1491   12.3153   12.8978 C   0  0  0  0  0  0 
   13.7760   12.6472   11.9988 H   0  0  0  0  0  0 
   13.1595   11.2044   12.8795 H   0  0  0  0  0  0 
   13.7791   12.7958   13.9861 O   0  0  0  0  0  0 
   13.1080   12.6755   15.1714 C   0  0  0  0  0  0 
   13.7562   13.2922   15.9171 H   0  0  0  0  0  0 
   13.1485   11.2583   15.6904 C   0  0  0  0  0  0 
   12.4413   10.5883   15.1758 H   0  0  0  0  0  0 
   14.1914   10.8550   15.5660 H   0  0  0  0  0  0 
   12.9178   11.2601   16.7906 H   0  0  0  0  0  0 
   11.7530   13.2718   15.1528 C   0  0  0  0  0  0 
   10.9485   12.5579   15.4422 H   0  0  0  0  0  0 
   11.6788   14.1690   15.8209 H   0  0  0  0  0  0 
    8.8599   15.4462   10.5280 C   0  0  0  0  0  0 
    7.8901   15.9303   10.5147 H   0  0  0  0  0  0 
    9.2116   14.7106    9.5530 C   0  0  0  0  0  0 
    9.9746   14.9954    8.7540 H   0  0  0  0  0  0 
  1  2  1  0
  2  3  2  0
  2 29  1  0
  3  4  1  0
  4  5  1  0
  4 27  1  0
  5  6  1  0
  5  7  1  0
  5  8  1  0
  8  9  2  0
  8 10  1  0
 10 11  1  0
 10 24  1  0
 11 12  1  0
 11 13  1  0
 11 14  1  0
 14 15  1  0
 14 16  1  0
 14 17  1  0
 17 18  1  0
 18 19  1  0
 18 20  1  0
 18 24  1  0
 20 21  1  0
 20 22  1  0
 20 23  1  0
 24 25  1  0
 24 26  1  0
 27 28  4  0
 27 29  2  0
 29 30  1  0
M  END
>  <name>


$$$$

 SMI23D  v 9.10   1.00000     0.00000

 37 38  0  0  0  0              1 V2000
   12.1734   10.0468   13.9577 H   0  0  0  0  0  0 
   11.8423   11.0822   14.3298 C   0  0  0  0  0  0 
   12.1440   11.9448   13.1062 C   0  0  0  0  0  0 
   11.1622   12.3797   12.9958 H   0  0  0  0  0  0 
   13.1508   13.0204   12.9564 C   0  0  0  0  0  0 
   14.2961   12.4596   12.1523 C   0  0  0  0  0  0 
   14.9022   13.2949   11.8110 H   0  0  0  0  0  0 
   14.8489   11.7241   12.7531 H   0  0  0  0  0  0 
   13.8362   11.9270   11.2751 H   0  0  0  0  0  0 
   13.6710   13.2734   14.3412 C   0  0  0  0  0  0 
   13.2449   14.3286   14.3518 H   0  0  0  0  0  0 
   13.5910   12.6987   15.6025 C   0  0  0  0  0  0 
   14.9809   12.1942   16.0050 C   0  0  0  0  0  0 
   15.3244   11.4180   15.3203 H   0  0  0  0  0  0 
   14.8479   11.6392   16.9899 H   0  0  0  0  0  0 
   15.7947   13.3268   16.1455 N   0  0  0  0  0  0 
   16.5794   13.7232   15.1155 C   0  0  0  0  0  0 
   17.6094   13.1690   15.2126 H   0  0  0  0  0  0 
   16.2102   13.3190   14.0900 H   0  0  0  0  0  0 
   16.8810   15.1769   14.8759 C   0  0  0  0  0  0 
   17.9838   15.3384   14.7462 H   0  0  0  0  0  0 
   16.3917   15.5396   13.9166 H   0  0  0  0  0  0 
   16.4093   16.0370   15.9321 N   0  0  0  0  0  0 
   17.2474   16.9753   16.4673 C   0  0  0  0  0  0 
   18.1547   16.5774   17.1900 O   0  0  0  0  0  0 
   16.5743   18.2993   16.7556 C   0  0  0  0  0  0 
   17.2739   19.1116   16.5180 H   0  0  0  0  0  0 
   15.6520   18.3650   16.1570 H   0  0  0  0  0  0 
   16.1387   18.4108   18.4700 Cl  0  0  0  0  0  0 
   15.2298   15.6746   16.6640 C   0  0  0  0  0  0 
   15.1324   16.3043   17.5812 H   0  0  0  0  0  0 
   14.3244   15.7790   16.0502 H   0  0  0  0  0  0 
   15.3891   14.2092   17.1219 C   0  0  0  0  0  0 
   16.1464   14.2282   17.9740 H   0  0  0  0  0  0 
   14.4006   13.9659   17.6019 H   0  0  0  0  0  0 
   12.5182   11.5923   15.5488 C   0  0  0  0  0  0 
   11.7161   11.9891   16.3113 H   0  0  0  0  0  0 
  1  2  1  0
  2  3  1  0
  2 36  2  0
  3  4  4  0
  3  5  2  0
  5  6  1  0
  5 10  1  0
  6  7  1  0
  6  8  1  0
  6  9  1  0
 10 11  4  0
 10 12  2  0
 12 13  1  0
 12 36  1  0
 13 14  1  0
 13 15  1  0
 13 16  1  0
 16 17  1  0
 16 33  1  0
 17 18  1  0
 17 19  1  0
 17 20  1  0
 20 21  1  0
 20 22  1  0
 20 23  1  0
 23 24  1  0
 23 30  1  0
 24 25  2  0
 24 26  1  0
 26 27  1  0
 26 28  1  0
 26 29  1  0
 30 31  1  0
 30 32  1  0
 30 33  1  0
 33 34  1  0
 33 35  1  0
 36 37  1  0
M  END
>  <name>


$$$$

 SMI23D  v 9.10   1.00000     0.00000

 34 35  0  0  0  0              1 V2000
   15.9688   14.1741    8.8989 H   0  0  0  0  0  0 
   15.1600   14.0963    9.7544 C   0  0  0  0  0  0 
   15.8972   14.7758   10.8967 C   0  0  0  0  0  0 
   15.6422   14.0453   11.6606 H   0  0  0  0  0  0 
   15.6292   16.1428   11.4910 C   0  0  0  0  0  0 
   16.8912   17.0595   10.7466 Cl  0  0  0  0  0  0 
   14.4207   16.6305   10.8034 C   0  0  0  0  0  0 
   14.8082   17.5818   10.3411 H   0  0  0  0  0  0 
   13.3824   16.1094    9.9997 C   0  0  0  0  0  0 
   12.0492   16.1394   10.8083 C   0  0  0  0  0  0 
   11.3065   16.6008   10.0543 H   0  0  0  0  0  0 
   12.1521   17.0251   11.5198 H   0  0  0  0  0  0 
   11.6441   15.0009   11.3610 N   0  0  0  0  0  0 
   10.6367   14.2383   10.7518 C   0  0  0  0  0  0 
   10.7594   13.1324   10.9911 H   0  0  0  0  0  0 
   10.5861   14.2948    9.6467 H   0  0  0  0  0  0 
    9.2618   14.6480   11.3166 C   0  0  0  0  0  0 
    8.8178   15.4349   10.7128 H   0  0  0  0  0  0 
    8.6204   13.7508   11.3814 H   0  0  0  0  0  0 
    9.5175   15.1375   12.6782 N   0  0  0  0  0  0 
    8.8915   16.2298   13.1204 C   0  0  0  0  0  0 
    7.6734   16.3380   12.8524 O   0  0  0  0  0  0 
    9.6865   17.4993   13.2797 C   0  0  0  0  0  0 
    9.9428   17.8943   12.2833 H   0  0  0  0  0  0 
    9.0574   18.2344   13.8305 H   0  0  0  0  0  0 
   11.1685   17.2487   14.2010 Cl  0  0  0  0  0  0 
   10.5443   14.4486   13.4268 C   0  0  0  0  0  0 
   10.3093   13.3583   13.4408 H   0  0  0  0  0  0 
   10.6286   14.8314   14.4483 H   0  0  0  0  0  0 
   11.8788   14.6373   12.6752 C   0  0  0  0  0  0 
   12.4977   15.3451   13.2685 H   0  0  0  0  0  0 
   12.4352   13.6416   12.7401 H   0  0  0  0  0  0 
   13.8288   14.7388    9.5411 C   0  0  0  0  0  0 
   13.0433   13.9128    9.6609 H   0  0  0  0  0  0 
  1  2  1  0
  2  3  1  0
  2 33  2  0
  3  4  4  0
  3  5  2  0
  5  6  1  0
  5  7  1  0
  7  8  4  0
  7  9  2  0
  9 10  1  0
  9 33  1  0
 10 11  1  0
 10 12  1  0
 10 13  1  0
 13 14  1  0
 13 30  1  0
 14 15  1  0
 14 16  1  0
 14 17  1  0
 17 18  1  0
 17 19  1  0
 17 20  1  0
 20 21  1  0
 20 27  1  0
 21 22  2  0
 21 23  1  0
 23 24  1  0
 23 25  1  0
 23 26  1  0
 27 28  1  0
 27 29  1  0
 27 30  1  0
 30 31  1  0
 30 32  1  0
 33 34  1  0
M  END
>  <name>


$$$$

 SMI23D  v 9.10   1.00000     0.00000

 25 25  0  0  0  0              1 V2000
    8.4072    6.1272    7.4017 H   0  0  0  0  0  0 
    8.2537    6.0655    8.4587 C   0  0  0  0  0  0 
    9.5688    6.4027    9.1581 C   0  0  0  0  0  0 
   10.1548    6.8169    8.3207 H   0  0  0  0  0  0 
    9.7880    7.4175   10.2390 C   0  0  0  0  0  0 
    9.8855    6.3274   11.6464 Cl  0  0  0  0  0  0 
    8.4420    8.0104   10.4958 C   0  0  0  0  0  0 
    8.4383    8.0488   11.5750 H   0  0  0  0  0  0 
    7.1420    8.0144    9.9441 C   0  0  0  0  0  0 
    6.9114    9.2030    9.0174 C   0  0  0  0  0  0 
    7.9459    9.6956    8.8503 H   0  0  0  0  0  0 
    6.3775    8.8562    7.7472 N   0  0  0  0  0  0 
    6.9337    8.9751    6.9415 H   0  0  0  0  0  0 
    5.5599    7.8040    7.5423 C   0  0  0  0  0  0 
    5.6254    7.1606    6.4858 O   0  0  0  0  0  0 
    4.3081    7.7332    8.3719 C   0  0  0  0  0  0 
    3.6935    8.6250    8.1731 H   0  0  0  0  0  0 
    3.7531    6.8115    8.0946 H   0  0  0  0  0  0 
    4.6567    7.6459   10.1031 Cl  0  0  0  0  0  0 
    6.0961   10.2813    9.7159 C   0  0  0  0  0  0 
    6.2766   11.2569    9.1786 H   0  0  0  0  0  0 
    6.4650   10.3961   10.7634 H   0  0  0  0  0  0 
    5.0213   10.0690    9.7100 H   0  0  0  0  0  0 
    7.1014    6.6631    9.1391 C   0  0  0  0  0  0 
    6.4639    5.9658    9.7893 H   0  0  0  0  0  0 
  1  2  1  0
  2  3  1  0
  2 24  2  0
  3  4  4  0
  3  5  2  0
  5  6  1  0
  5  7  1  0
  7  8  4  0
  7  9  2  0
  9 10  1  0
  9 24  1  0
 10 11  1  0
 10 12  1  0
 10 20  1  0
 12 13  1  0
 12 14  1  0
 14 15  2  0
 14 16  1  0
 16 17  1  0
 16 18  1  0
 16 19  1  0
 20 21  1  0
 20 22  1  0
 20 23  1  0
 24 25  1  0
M  END
>  <name>


$$$$

 SMI23D  v 9.10   1.00000     0.00000

 27 28  0  0  0  0              1 V2000
    8.2550   14.1744    9.1743 H   0  0  0  0  0  0 
    8.8975   14.7794    9.8802 C   0  0  0  0  0  0 
    8.5496   14.1526   11.1957 N   0  0  0  0  0  0 
    9.7115   14.0244   11.8203 C   0  0  0  0  0  0 
    9.5932   14.1913   12.9237 H   0  0  0  0  0  0 
   11.1649   13.6580   11.4727 C   0  0  0  0  0  0 
   11.3177   12.2815   11.7843 N   0  0  0  0  0  0 
   10.8809   12.0912   12.5556 H   0  0  0  0  0  0 
   10.8198   11.5874   10.7368 C   0  0  0  0  0  0 
    9.6966   11.1571   10.7295 O   0  0  0  0  0  0 
   11.7955   11.1795    9.9786 N   0  0  0  0  0  0 
   11.5862   11.0080    9.0846 H   0  0  0  0  0  0 
   12.3823   10.0367   10.5412 C   0  0  0  0  0  0 
   13.4476   10.7135   11.3183 C   0  0  0  0  0  0 
   13.2893   10.2376   12.2657 H   0  0  0  0  0  0 
   14.9306   10.7830   11.0638 C   0  0  0  0  0  0 
   15.2088   11.7652   10.7795 H   0  0  0  0  0  0 
   15.1597    9.8198    9.9532 C   0  0  0  0  0  0 
   15.5900   10.5149    9.1634 H   0  0  0  0  0  0 
   14.4358    8.8238    9.2600 C   0  0  0  0  0  0 
   14.8654    7.7924    9.5183 H   0  0  0  0  0  0 
   12.9709    8.9523    9.7156 C   0  0  0  0  0  0 
   12.5389    7.9764   10.1101 H   0  0  0  0  0  0 
   11.5045   14.2486   10.1868 C   0  0  0  0  0  0 
   12.4263   14.6509    9.7895 H   0  0  0  0  0  0 
   10.2786   15.0500    9.6783 C   0  0  0  0  0  0 
   10.5527   16.1870    9.6369 H   0  0  0  0  0  0 
  1  2  1  0
  2  3  1  0
  2 26  2  0
  3  4  2  0
  4  5  4  0
  4  6  1  0
  6  7  1  0
  6 24  2  0
  7  8  1  0
  7  9  1  0
  9 10  2  0
  9 11  1  0
 11 12  1  0
 11 13  1  0
 13 14  1  0
 13 22  2  0
 14 15  4  0
 14 16  2  0
 16 17  4  0
 16 18  1  0
 18 19  4  0
 18 20  2  0
 20 21  4  0
 20 22  1  0
 22 23  1  0
 24 25  4  0
 24 26  1  0
 26 27  1  0
M  END
>  <name>


$$$$

 SMI23D  v 9.10   1.00000     0.00000

 34 35  0  0  0  0              1 V2000
   13.7238   13.1532   12.0128 H   0  0  0  0  0  0 
   14.1055   14.0385   12.6235 C   0  0  0  0  0  0 
   13.5410   15.2117   11.8275 C   0  0  0  0  0  0 
   14.4683   15.7232   11.6570 H   0  0  0  0  0  0 
   12.5450   16.2272   12.2537 C   0  0  0  0  0  0 
   11.3543   15.7436   11.6509 C   0  0  0  0  0  0 
   10.2605   16.0280   12.1155 O   0  0  0  0  0  0 
   11.5415   15.8708   10.3121 N   0  0  0  0  0  0 
   11.0366   17.0698    9.6420 C   0  0  0  0  0  0 
   10.6569   17.7823   10.3795 H   0  0  0  0  0  0 
   10.2353   16.7697    8.9288 H   0  0  0  0  0  0 
   12.1918   17.6848    8.8460 C   0  0  0  0  0  0 
   11.8623   18.6706    8.4413 H   0  0  0  0  0  0 
   13.0524   17.8483    9.5386 H   0  0  0  0  0  0 
   12.6231   16.5260    7.5126 S   0  0  0  0  0  0 
   13.1341   15.1608    8.5964 C   0  0  0  0  0  0 
   13.4255   14.2617    7.9852 H   0  0  0  0  0  0 
   14.0059   15.4447    9.2275 H   0  0  0  0  0  0 
   11.9654   14.7597    9.4921 C   0  0  0  0  0  0 
   11.1159   14.4344    8.8389 H   0  0  0  0  0  0 
   12.2698   13.9074   10.1333 H   0  0  0  0  0  0 
   12.2835   15.9491   13.6885 C   0  0  0  0  0  0 
   12.5922   16.9786   14.0363 H   0  0  0  0  0  0 
   12.6230   15.0207   14.6713 C   0  0  0  0  0  0 
   11.4983   14.2593   14.8582 N   0  0  0  0  0  0 
   10.9812   14.2075   14.0780 H   0  0  0  0  0  0 
   11.8519   13.0551   15.3223 C   0  0  0  0  0  0 
   11.6822   12.0585   14.6265 O   0  0  0  0  0  0 
   12.7357   12.9933   16.5346 C   0  0  0  0  0  0 
   12.9422   14.0005   16.9170 H   0  0  0  0  0  0 
   12.2443   12.3723   17.3100 H   0  0  0  0  0  0 
   14.2864   12.2224   16.1313 Cl  0  0  0  0  0  0 
   13.7387   14.1118   14.0384 C   0  0  0  0  0  0 
   14.6377   14.2898   14.7350 H   0  0  0  0  0  0 
  1  2  1  0
  2  3  1  0
  2 33  2  0
  3  4  4  0
  3  5  2  0
  5  6  1  0
  5 22  1  0
  6  7  2  0
  6  8  1  0
  8  9  1  0
  8 19  1  0
  9 10  1  0
  9 11  1  0
  9 12  1  0
 12 13  1  0
 12 14  1  0
 12 15  1  0
 15 16  1  0
 16 17  1  0
 16 18  1  0
 16 19  1  0
 19 20  1  0
 19 21  1  0
 22 23  4  0
 22 24  2  0
 24 25  1  0
 24 33  1  0
 25 26  1  0
 25 27  1  0
 27 28  2  0
 27 29  1  0
 29 30  1  0
 29 31  1  0
 29 32  1  0
 33 34  1  0
M  END
>  <name>


$$$$

 SMI23D  v 9.10   1.00000     0.00000

 25 25  0  0  0  0              1 V2000
    8.4072    6.1272    7.4017 H   0  0  0  0  0  0 
    8.2537    6.0655    8.4587 C   0  0  0  0  0  0 
    9.5688    6.4027    9.1581 C   0  0  0  0  0  0 
   10.1548    6.8169    8.3207 H   0  0  0  0  0  0 
    9.7880    7.4175   10.2390 C   0  0  0  0  0  0 
    9.8855    6.3274   11.6464 Cl  0  0  0  0  0  0 
    8.4420    8.0104   10.4958 C   0  0  0  0  0  0 
    8.4383    8.0488   11.5750 H   0  0  0  0  0  0 
    7.1420    8.0144    9.9441 C   0  0  0  0  0  0 
    6.9114    9.2030    9.0174 C   0  0  0  0  0  0 
    7.9459    9.6956    8.8503 H   0  0  0  0  0  0 
    6.3775    8.8562    7.7472 N   0  0  0  0  0  0 
    6.9337    8.9751    6.9415 H   0  0  0  0  0  0 
    5.5599    7.8040    7.5423 C   0  0  0  0  0  0 
    5.6254    7.1606    6.4858 O   0  0  0  0  0  0 
    4.3081    7.7332    8.3719 C   0  0  0  0  0  0 
    3.6935    8.6250    8.1731 H   0  0  0  0  0  0 
    3.7531    6.8115    8.0946 H   0  0  0  0  0  0 
    4.6567    7.6459   10.1031 Cl  0  0  0  0  0  0 
    6.0961   10.2813    9.7159 C   0  0  0  0  0  0 
    6.2766   11.2569    9.1786 H   0  0  0  0  0  0 
    6.4650   10.3961   10.7634 H   0  0  0  0  0  0 
    5.0213   10.0690    9.7100 H   0  0  0  0  0  0 
    7.1014    6.6631    9.1391 C   0  0  0  0  0  0 
    6.4639    5.9658    9.7893 H   0  0  0  0  0  0 
  1  2  1  0
  2  3  1  0
  2 24  2  0
  3  4  4  0
  3  5  2  0
  5  6  1  0
  5  7  1  0
  7  8  4  0
  7  9  2  0
  9 10  1  0
  9 24  1  0
 10 11  1  0
 10 12  1  0
 10 20  1  0
 12 13  1  0
 12 14  1  0
 14 15  2  0
 14 16  1  0
 16 17  1  0
 16 18  1  0
 16 19  1  0
 20 21  1  0
 20 22  1  0
 20 23  1  0
 24 25  1  0
M  END
>  <name>


$$$$

 SMI23D  v 9.10   1.00000     0.00000

 30 31  0  0  0  0              1 V2000
   10.2443   12.1069   12.5020 H   0  0  0  0  0  0 
   10.5371   13.2216   12.7625 C   0  0  0  0  0  0 
   11.1822   14.0850   11.8976 C   0  0  0  0  0  0 
   12.5434   14.4799   11.9055 C   0  0  0  0  0  0 
   13.0016   15.2583   11.1288 O   0  0  0  0  0  0 
   13.0493   14.2760   13.1337 N   0  0  0  0  0  0 
   12.5701   14.8288   13.7645 H   0  0  0  0  0  0 
   12.9251   12.9900   13.4918 N   0  0  0  0  0  0 
   13.4288   12.8208   14.2920 H   0  0  0  0  0  0 
   13.3764   12.1789   12.5088 C   0  0  0  0  0  0 
   14.1609   12.5975   11.6738 O   0  0  0  0  0  0 
   13.3031   10.6996   12.8184 C   0  0  0  0  0  0 
   12.4900   10.5313   13.5404 H   0  0  0  0  0  0 
   13.1406   10.1465   11.8831 H   0  0  0  0  0  0 
   14.8224   10.1483   13.5460 Cl  0  0  0  0  0  0 
   10.2048   15.6599   12.0593 S   0  0  0  0  0  0 
    8.7395   14.9548   12.7118 C   0  0  0  0  0  0 
    9.4239   13.8219   13.2807 C   0  0  0  0  0  0 
    9.7261   13.4845   14.9235 C   0  0  0  0  0  0 
    9.1826   12.6220   14.9956 H   0  0  0  0  0  0 
   10.7439   13.6107   14.9563 H   0  0  0  0  0  0 
    8.9736   14.7366   15.6492 C   0  0  0  0  0  0 
    8.2570   14.1642   16.3331 H   0  0  0  0  0  0 
    9.8043   15.1045   16.3344 H   0  0  0  0  0  0 
    8.2578   15.9384   15.0807 C   0  0  0  0  0  0 
    7.2254   15.9599   15.5279 H   0  0  0  0  0  0 
    8.7850   16.8688   15.4480 H   0  0  0  0  0  0 
    8.0273   16.2047   13.5456 C   0  0  0  0  0  0 
    7.0228   15.9850   13.2833 H   0  0  0  0  0  0 
    8.5650   17.0023   13.2007 H   0  0  0  0  0  0 
  1  2  1  0
  2  3  2  0
  2 18  1  0
  3  4  1  0
  3 16  1  0
  4  5  2  0
  4  6  1  0
  6  7  1  0
  6  8  1  0
  8  9  1  0
  8 10  1  0
 10 11  2  0
 10 12  1  0
 12 13  1  0
 12 14  1  0
 12 15  1  0
 16 17  1  0
 17 18  3  0
 17 28  1  0
 18 19  1  0
 19 20  1  0
 19 21  1  0
 19 22  1  0
 22 23  1  0
 22 24  1  0
 22 25  1  0
 25 26  1  0
 25 27  1  0
 25 28  1  0
 28 29  1  0
 28 30  1  0
M  END
>  <name>


$$$$

 SMI23D  v 9.10   1.00000     0.00000

 26 26  0  0  0  0              1 V2000
    7.3817   14.1183   15.1000 H   0  0  0  0  0  0 
    7.4453   13.0849   14.8585 C   0  0  0  0  0  0 
    6.8193   12.8784   13.4911 C   0  0  0  0  0  0 
    6.8865   13.9364   13.0958 H   0  0  0  0  0  0 
    7.3008   12.0372   12.3872 C   0  0  0  0  0  0 
    6.4438   11.2817   12.2861 H   0  0  0  0  0  0 
    8.6407   11.3931   12.7320 C   0  0  0  0  0  0 
    8.8028    9.9550   12.1270 C   0  0  0  0  0  0 
    8.7720    9.2790   13.0213 H   0  0  0  0  0  0 
    9.9034    9.9654   11.7862 H   0  0  0  0  0  0 
    7.9391    9.5379   11.0444 C   0  0  0  0  0  0 
    7.6710   10.3505   10.3472 H   0  0  0  0  0  0 
    6.9785    9.0591   11.4512 H   0  0  0  0  0  0 
    8.5689    8.4731   10.3008 N   0  0  0  0  0  0 
    8.0507    7.6073   10.3522 H   0  0  0  0  0  0 
    8.8463    8.8620    8.7433 S   0  0  0  0  0  0 
    7.6584    9.3261    8.0938 O   0  0  0  0  0  0 
    9.4464    7.6935    8.1111 O   0  0  0  0  0  0 
   10.0730   10.1526    8.6648 C   0  0  0  0  0  0 
   10.4467   10.2459    7.6235 H   0  0  0  0  0  0 
    9.6317   11.1128    8.9993 H   0  0  0  0  0  0 
   10.9228    9.8808    9.3379 H   0  0  0  0  0  0 
    9.4713   11.6470   13.9281 C   0  0  0  0  0  0 
   10.3408   12.4347   13.8955 H   0  0  0  0  0  0 
    8.5892   12.2425   15.1169 C   0  0  0  0  0  0 
    8.4569   11.3259   15.7920 H   0  0  0  0  0  0 
  1  2  1  0
  2  3  1  0
  2 25  2  0
  3  4  4  0
  3  5  2  0
  5  6  4  0
  5  7  1  0
  7  8  1  0
  7 23  2  0
  8  9  1  0
  8 10  1  0
  8 11  1  0
 11 12  1  0
 11 13  1  0
 11 14  1  0
 14 15  1  0
 14 16  1  0
 16 17  2  0
 16 18  2  0
 16 19  1  0
 19 20  1  0
 19 21  1  0
 19 22  1  0
 23 24  4  0
 23 25  1  0
 25 26  1  0
M  END
>  <name>


$$$$

 SMI23D  v 9.10   1.00000     0.00000

 20 20  0  0  0  0              1 V2000
    6.6967    8.9793    4.6149 H   0  0  0  0  0  0 
    7.3696    8.0110    4.7730 C   0  0  0  0  0  0 
    7.1618    7.8959    6.2352 N   0  0  0  0  0  0 
    8.2275    8.2419    6.8250 C   0  0  0  0  0  0 
    8.2853    7.6671    7.9819 N   0  0  0  0  0  0 
    7.8539    6.7913    7.9782 H   0  0  0  0  0  0 
    8.0942    8.4872    9.1899 C   0  0  0  0  0  0 
    8.7133    9.4075    9.0545 H   0  0  0  0  0  0 
    8.4575    7.9118   10.0613 H   0  0  0  0  0  0 
    6.6444    8.8734    9.3685 C   0  0  0  0  0  0 
    6.3746    8.7957   10.4552 H   0  0  0  0  0  0 
    6.4939    9.9355    9.0505 H   0  0  0  0  0  0 
    5.9721    8.2175    8.7825 H   0  0  0  0  0  0 
    9.5828    8.4592    6.4534 C   0  0  0  0  0  0 
   10.1504    7.7448    7.0756 H   0  0  0  0  0  0 
   10.0537    8.4462    5.1364 C   0  0  0  0  0  0 
   10.4549    9.4387    4.7429 H   0  0  0  0  0  0 
    8.7320    8.1675    4.4002 C   0  0  0  0  0  0 
    9.1251    7.2117    3.5607 C   0  0  0  0  0  0 
    8.5018    6.2563    3.7691 N   0  0  0  0  0  0 
  1  2  1  0
  2  3  1  0
  2 18  2  0
  3  4  2  0
  4  5  1  0
  4 14  1  0
  5  6  1  0
  5  7  1  0
  7  8  1  0
  7  9  1  0
  7 10  1  0
 10 11  1  0
 10 12  1  0
 10 13  1  0
 14 15  4  0
 14 16  2  0
 16 17  4  0
 16 18  1  0
 18 19  1  0
 19 20  3  0
M  END
>  <name>


$$$$

 SMI23D  v 9.10   1.00000     0.00000

 30 31  0  0  0  0              1 V2000
   10.9354   11.6895   13.2369 H   0  0  0  0  0  0 
   11.3654   12.3491   12.3449 C   0  0  0  0  0  0 
   12.2517   11.7415   11.3996 C   0  0  0  0  0  0 
   13.3582   11.6306   11.4003 H   0  0  0  0  0  0 
   11.9581   12.8336    9.9165 S   0  0  0  0  0  0 
   11.5557   12.0297    8.8618 O   0  0  0  0  0  0 
   13.0421   13.7213    9.8371 O   0  0  0  0  0  0 
   10.5174   13.7999   10.4806 C   0  0  0  0  0  0 
   10.7001   14.8523   10.3308 H   0  0  0  0  0  0 
    9.6320   13.4479    9.9114 H   0  0  0  0  0  0 
   10.3914   13.4059   11.9433 C   0  0  0  0  0  0 
    9.3553   13.0124   12.1064 H   0  0  0  0  0  0 
   10.5703   14.6522   12.7742 N   0  0  0  0  0  0 
   11.6516   15.4043   12.5620 C   0  0  0  0  0  0 
   11.5063   16.5124   12.0116 O   0  0  0  0  0  0 
   13.0405   14.9357   12.8300 C   0  0  0  0  0  0 
   13.1087   13.8965   13.1304 H   0  0  0  0  0  0 
   13.6700   15.1216   11.9173 H   0  0  0  0  0  0 
   13.8016   15.9006   14.1368 Cl  0  0  0  0  0  0 
    9.4595   15.2994   12.8920 C   0  0  0  0  0  0 
    9.3208   15.3880   14.4034 C   0  0  0  0  0  0 
   10.3799   15.3192   14.6968 H   0  0  0  0  0  0 
    8.7614   16.5865   15.0525 C   0  0  0  0  0  0 
    7.8032   16.2188   15.6262 H   0  0  0  0  0  0 
    8.5026   17.7243   14.2235 C   0  0  0  0  0  0 
    9.5622   18.5460   14.7034 F   0  0  0  0  0  0 
    8.4898   17.6802   12.7196 C   0  0  0  0  0  0 
    7.5443   18.1070   12.3536 H   0  0  0  0  0  0 
    8.7295   16.2652   12.1216 C   0  0  0  0  0  0 
    7.7525   15.8461   11.6299 H   0  0  0  0  0  0 
  1  2  1  0
  2  3  2  0
  2 11  1  0
  3  4  1  0
  3  5  1  0
  5  6  2  0
  5  7  2  0
  5  8  1  0
  8  9  1  0
  8 10  1  0
  8 11  1  0
 11 12  1  0
 11 13  1  0
 13 14  1  0
 13 20  1  0
 14 15  2  0
 14 16  1  0
 16 17  1  0
 16 18  1  0
 16 19  1  0
 20 21  1  0
 20 29  2  0
 21 22  4  0
 21 23  2  0
 23 24  4  0
 23 25  1  0
 25 26  1  0
 25 27  2  0
 27 28  4  0
 27 29  1  0
 29 30  1  0
M  END
>  <name>


$$$$

 SMI23D  v 9.10   1.00000     0.00000

 34 36  0  0  0  0              1 V2000
   14.6676   13.6804   13.7868 H   0  0  0  0  0  0 
   14.3791   14.1593   14.7679 C   0  0  0  0  0  0 
   12.9593   13.7657   15.0632 C   0  0  0  0  0  0 
   12.6911   13.1427   14.2297 H   0  0  0  0  0  0 
   11.7981   14.6491   15.2611 C   0  0  0  0  0  0 
   11.5017   14.6076   16.3816 H   0  0  0  0  0  0 
   12.2285   16.0404   15.0470 C   0  0  0  0  0  0 
   11.6907   16.0774   13.5302 S   0  0  0  0  0  0 
   12.7424   17.1070   12.9038 C   0  0  0  0  0  0 
   12.9726   17.0945   11.4700 C   0  0  0  0  0  0 
   13.3035   18.2169   11.2203 H   0  0  0  0  0  0 
   11.7500   16.8693   10.6434 C   0  0  0  0  0  0 
   10.8299   17.1944   11.2026 H   0  0  0  0  0  0 
   11.7950   17.5096    9.7028 H   0  0  0  0  0  0 
   11.5598   15.5004   10.2034 N   0  0  0  0  0  0 
   10.3312   14.9551   10.1987 C   0  0  0  0  0  0 
    9.6449   14.9947   11.2096 O   0  0  0  0  0  0 
    9.7784   14.4070    8.9212 C   0  0  0  0  0  0 
    9.3908   13.3827    9.1092 H   0  0  0  0  0  0 
    8.9542   15.0625    8.5715 H   0  0  0  0  0  0 
   10.9894   14.3143    7.6428 Cl  0  0  0  0  0  0 
   12.6942   14.7413    9.7214 C   0  0  0  0  0  0 
   13.0511   15.1636    8.7620 H   0  0  0  0  0  0 
   12.4049   13.6766    9.5939 H   0  0  0  0  0  0 
   13.8117   14.8233   10.7561 C   0  0  0  0  0  0 
   14.7176   14.3145   10.3411 H   0  0  0  0  0  0 
   13.4929   14.3127   11.6832 H   0  0  0  0  0  0 
   14.1554   16.2732   11.0352 C   0  0  0  0  0  0 
   14.9574   16.3069   11.8164 H   0  0  0  0  0  0 
   14.5952   16.7220   10.0975 H   0  0  0  0  0  0 
   13.6994   17.0496   13.8132 N   0  0  0  0  0  0 
   13.5411   16.5000   14.9173 C   0  0  0  0  0  0 
   14.6854   15.5583   14.9408 C   0  0  0  0  0  0 
   15.2873   15.8714   15.8571 H   0  0  0  0  0  0 
  1  2  1  0
  2  3  1  0
  2 33  2  0
  3  4  4  0
  3  5  2  0
  5  6  4  0
  5  7  1  0
  7  8  1  0
  7 32  3  0
  8  9  2  0
  9 10  1  0
  9 31  1  0
 10 11  1  0
 10 12  1  0
 10 28  1  0
 12 13  1  0
 12 14  1  0
 12 15  1  0
 15 16  1  0
 15 22  1  0
 16 17  2  0
 16 18  1  0
 18 19  1  0
 18 20  1  0
 18 21  1  0
 22 23  1  0
 22 24  1  0
 22 25  1  0
 25 26  1  0
 25 27  1  0
 25 28  1  0
 28 29  1  0
 28 30  1  0
 31 32  1  0
 32 33  1  0
 33 34  1  0
M  END
>  <name>


$$$$

 SMI23D  v 9.10   1.00000     0.00000

 12 12  0  0  0  0              1 V2000
    4.6277    2.4531    4.0295 H   0  0  0  0  0  0 
    4.2785    3.0537    3.4698 O   0  0  0  0  0  0 
    3.0706    3.5684    3.9044 C   0  0  0  0  0  0 
    3.2031    3.2153    5.3428 N   0  0  0  0  0  0 
    2.9056    4.2364    6.0640 C   0  0  0  0  0  0 
    2.1864    4.0121    6.8998 H   0  0  0  0  0  0 
    2.8164    5.6322    5.7663 C   0  0  0  0  0  0 
    3.7516    5.9891    6.2298 H   0  0  0  0  0  0 
    2.6117    6.1598    4.4473 C   0  0  0  0  0  0 
    1.7447    6.8252    4.3515 H   0  0  0  0  0  0 
    2.4695    4.8391    3.6878 C   0  0  0  0  0  0 
    1.4856    4.8093    3.0573 H   0  0  0  0  0  0 
  1  2  1  0
  2  3  1  0
  3  4  1  0
  3 11  2  0
  4  5  2  0
  5  6  4  0
  5  7  1  0
  7  8  4  0
  7  9  2  0
  9 10  4  0
  9 11  1  0
 11 12  1  0
M  END
>  <name>


$$$$

 SMI23D  v 9.10   1.00000     0.00000

 31 32  0  0  0  0              1 V2000
   10.9248   15.1008   10.5989 H   0  0  0  0  0  0 
   10.2146   15.1580   11.5633 C   0  0  0  0  0  0 
    9.0422   14.4322   11.6731 C   0  0  0  0  0  0 
    7.5301   15.3249   11.5605 Cl  0  0  0  0  0  0 
    9.0182   13.6301   13.2977 S   0  0  0  0  0  0 
   10.7564   14.0717   13.6651 C   0  0  0  0  0  0 
   11.3202   12.7917   14.2903 C   0  0  0  0  0  0 
   12.2966   13.1239   14.8146 H   0  0  0  0  0  0 
   10.6534   12.5672   15.1539 H   0  0  0  0  0  0 
   11.5460   11.7818   13.4195 N   0  0  0  0  0  0 
   12.3169   12.1229   12.3004 C   0  0  0  0  0  0 
   13.0266   12.9499   12.4638 H   0  0  0  0  0  0 
   11.6752   12.3872   11.4126 H   0  0  0  0  0  0 
   13.1438   10.8794   11.8788 C   0  0  0  0  0  0 
   13.7706   11.1136   11.0234 H   0  0  0  0  0  0 
   13.7256   10.5343   12.7511 H   0  0  0  0  0  0 
   12.1533    9.8671   11.5343 N   0  0  0  0  0  0 
   12.1446    9.3653   10.2748 C   0  0  0  0  0  0 
   12.9893    8.5552    9.9334 O   0  0  0  0  0  0 
   11.3227   10.1160    9.2643 C   0  0  0  0  0  0 
   11.8822   11.0065    8.9324 H   0  0  0  0  0  0 
   11.0989    9.4475    8.4144 H   0  0  0  0  0  0 
    9.7869   10.6541    9.9661 Cl  0  0  0  0  0  0 
   11.0810    9.5936   12.4316 C   0  0  0  0  0  0 
   10.2325    9.1173   11.8843 H   0  0  0  0  0  0 
   11.4300    8.8796   13.2251 H   0  0  0  0  0  0 
   10.5558   10.8558   13.1320 C   0  0  0  0  0  0 
   10.0517   10.4591   14.0673 H   0  0  0  0  0  0 
    9.7316   11.2839   12.4986 H   0  0  0  0  0  0 
   11.2252   14.9032   12.7041 C   0  0  0  0  0  0 
   11.7883   15.8938   12.8348 H   0  0  0  0  0  0 
  1  2  1  0
  2  3  2  0
  2 30  1  0
  3  4  1  0
  3  5  1  0
  5  6  1  0
  6  7  1  0
  6 30  2  0
  7  8  1  0
  7  9  1  0
  7 10  1  0
 10 11  1  0
 10 27  1  0
 11 12  1  0
 11 13  1  0
 11 14  1  0
 14 15  1  0
 14 16  1  0
 14 17  1  0
 17 18  1  0
 17 24  1  0
 18 19  2  0
 18 20  1  0
 20 21  1  0
 20 22  1  0
 20 23  1  0
 24 25  1  0
 24 26  1  0
 24 27  1  0
 27 28  1  0
 27 29  1  0
 30 31  1  0
M  END
>  <name>


$$$$

 SMI23D  v 9.10   1.00000     0.00000

 28 29  0  0  0  0              1 V2000
    9.9430   11.7643   13.9037 H   0  0  0  0  0  0 
    9.6627   11.2745   12.9130 C   0  0  0  0  0  0 
    9.1335   12.4200   12.1660 N   0  0  0  0  0  0 
    8.0406   12.0169   11.6343 C   0  0  0  0  0  0 
    7.4828   12.8886   10.9624 N   0  0  0  0  0  0 
    7.2771   13.7189   11.4999 H   0  0  0  0  0  0 
    8.4026   13.4680    9.7120 S   0  0  0  0  0  0 
    8.3920   12.5050    8.6680 O   0  0  0  0  0  0 
    9.7041   13.8292   10.2390 O   0  0  0  0  0  0 
    7.6377   14.9698    9.1598 C   0  0  0  0  0  0 
    6.1893   14.6651    9.3912 C   0  0  0  0  0  0 
    5.9473   15.4643   10.0455 H   0  0  0  0  0  0 
    5.1347   14.4665    8.4161 C   0  0  0  0  0  0 
    4.8341   13.3919    8.3513 H   0  0  0  0  0  0 
    5.5776   14.9587    7.0090 C   0  0  0  0  0  0 
    4.5599   15.9771    6.7329 N   0  0  0  0  0  0 
    4.7352   16.6260    7.4395 H   0  0  0  0  0  0 
    3.7262   15.5032    6.8059 H   0  0  0  0  0  0 
    6.9311   15.2451    6.5605 C   0  0  0  0  0  0 
    7.4353   14.5341    5.8395 H   0  0  0  0  0  0 
    7.9634   15.3290    7.7886 C   0  0  0  0  0  0 
    8.2468   16.4611    7.7162 H   0  0  0  0  0  0 
    7.0675   11.0120   11.9223 C   0  0  0  0  0  0 
    6.2765   11.6306   12.3901 H   0  0  0  0  0  0 
    7.3955    9.8810   12.6467 C   0  0  0  0  0  0 
    7.0996    8.8863   12.3759 H   0  0  0  0  0  0 
    8.9087   10.0609   12.8091 C   0  0  0  0  0  0 
    9.4963    9.1814   12.3115 H   0  0  0  0  0  0 
  1  2  1  0
  2  3  1  0
  2 27  2  0
  3  4  2  0
  4  5  1  0
  4 23  1  0
  5  6  1  0
  5  7  1  0
  7  8  2  0
  7  9  2  0
  7 10  1  0
 10 11  1  0
 10 21  2  0
 11 12  4  0
 11 13  2  0
 13 14  4  0
 13 15  1  0
 15 16  1  0
 15 19  2  0
 16 17  1  0
 16 18  1  0
 19 20  4  0
 19 21  1  0
 21 22  1  0
 23 24  4  0
 23 25  2  0
 25 26  4  0
 25 27  1  0
 27 28  1  0
M  END
>  <name>


$$$$

 SMI23D  v 9.10   1.00000     0.00000

 25 26  0  0  0  0              1 V2000
    7.3490    8.1288   10.0471 H   0  0  0  0  0  0 
    6.8121    7.2573    9.5645 C   0  0  0  0  0  0 
    7.3934    6.0507   10.2874 C   0  0  0  0  0  0 
    6.3994    5.6509   10.5470 H   0  0  0  0  0  0 
    8.1680    4.9654    9.6458 C   0  0  0  0  0  0 
    9.0818    4.7909   10.0931 H   0  0  0  0  0  0 
    8.2633    5.1795    8.2113 C   0  0  0  0  0  0 
    9.7748    5.9545    8.2370 S   0  0  0  0  0  0 
    9.5992    6.9007    6.9560 C   0  0  0  0  0  0 
    9.8104    8.2458    7.1430 N   0  0  0  0  0  0 
   10.7305    8.4185    7.2835 H   0  0  0  0  0  0 
    9.4364    8.8072    5.9416 C   0  0  0  0  0  0 
    9.9361    8.2850    4.9380 O   0  0  0  0  0  0 
    8.0315    9.3358    5.8800 C   0  0  0  0  0  0 
    8.0362   10.2770    5.2911 H   0  0  0  0  0  0 
    7.3688    8.5997    5.3910 H   0  0  0  0  0  0 
    7.3999    9.6908    7.4904 Cl  0  0  0  0  0  0 
    8.2650    6.7167    6.7162 N   0  0  0  0  0  0 
    7.5888    6.1220    7.5197 C   0  0  0  0  0  0 
    6.7361    7.1792    8.1381 C   0  0  0  0  0  0 
    5.6049    6.9057    7.4184 O   0  0  0  0  0  0 
    4.4949    7.7308    7.6204 C   0  0  0  0  0  0 
    4.6873    8.3503    8.5141 H   0  0  0  0  0  0 
    4.3670    8.3619    6.7238 H   0  0  0  0  0  0 
    3.6151    7.0795    7.7743 H   0  0  0  0  0  0 
  1  2  1  0
  2  3  1  0
  2 20  2  0
  3  4  4  0
  3  5  2  0
  5  6  4  0
  5  7  1  0
  7  8  1  0
  7 19  3  0
  8  9  2  0
  9 10  1  0
  9 18  1  0
 10 11  1  0
 10 12  1  0
 12 13  2  0
 12 14  1  0
 14 15  1  0
 14 16  1  0
 14 17  1  0
 18 19  1  0
 19 20  1  0
 20 21  1  0
 21 22  1  0
 22 23  1  0
 22 24  1  0
 22 25  1  0
M  END
>  <name>


$$$$

 SMI23D  v 9.10   1.00000     0.00000

 30 31  0  0  0  0              1 V2000
    8.4556   15.2145   14.2240 H   0  0  0  0  0  0 
    9.1940   14.9972   13.4166 C   0  0  0  0  0  0 
    9.8100   13.6119   13.7962 C   0  0  0  0  0  0 
   11.2601   13.6496   14.1234 C   0  0  0  0  0  0 
   11.3900   13.6575   15.2312 H   0  0  0  0  0  0 
   11.7126   14.5860   13.7235 H   0  0  0  0  0  0 
   11.9444   12.4990   13.5533 N   0  0  0  0  0  0 
   11.7374   12.1637   12.2716 C   0  0  0  0  0  0 
   11.0877   11.1605   12.0036 O   0  0  0  0  0  0 
   12.2577   12.9474   11.3901 N   0  0  0  0  0  0 
   11.9459   12.7756   10.5096 H   0  0  0  0  0  0 
   13.3110   13.7298   11.5613 C   0  0  0  0  0  0 
   12.7691   14.6690   11.4735 H   0  0  0  0  0  0 
   14.3358   12.6084   11.5627 C   0  0  0  0  0  0 
   14.4861   11.9783   10.6092 H   0  0  0  0  0  0 
   14.3091   11.8702   12.4459 H   0  0  0  0  0  0 
   14.7938   13.9760   11.6968 C   0  0  0  0  0  0 
   15.3649   14.5059   10.8483 H   0  0  0  0  0  0 
   15.1642   14.4109   12.6898 H   0  0  0  0  0  0 
   12.4418   11.4696   14.4653 C   0  0  0  0  0  0 
   12.7386   10.5699   13.8815 H   0  0  0  0  0  0 
   13.3155   11.8719   15.0108 H   0  0  0  0  0  0 
   11.6362   11.1852   15.1740 H   0  0  0  0  0  0 
    9.4096   12.7591   12.9483 N   0  0  0  0  0  0 
    8.3708   13.1576   12.2521 O   0  0  0  0  0  0 
    8.3407   14.5744   12.1620 C   0  0  0  0  0  0 
    9.1501   14.9608   10.9323 C   0  0  0  0  0  0 
    9.7546   15.8686   11.1587 H   0  0  0  0  0  0 
    8.4609   15.1785   10.0867 H   0  0  0  0  0  0 
    9.8287   14.1253   10.6538 H   0  0  0  0  0  0 
  1  2  1  0
  2  3  1  0
  2 26  1  0
  3  4  1  0
  3 24  2  0
  4  5  1  0
  4  6  1  0
  4  7  1  0
  7  8  1  0
  7 20  1  0
  8  9  2  0
  8 10  1  0
 10 11  1  0
 10 12  1  0
 12 13  1  0
 12 14  1  0
 12 17  1  0
 14 15  1  0
 14 16  1  0
 14 17  1  0
 17 18  1  0
 17 19  1  0
 20 21  1  0
 20 22  1  0
 20 23  1  0
 24 25  1  0
 25 26  1  0
 26 27  1  0
 27 28  1  0
 27 29  1  0
 27 30  1  0
M  END
>  <name>


$$$$

 SMI23D  v 9.10   1.00000     0.00000

 24 25  0  0  0  0              1 V2000
    5.1548    8.4330    8.7414 H   0  0  0  0  0  0 
    5.9146    8.7596    9.5552 C   0  0  0  0  0  0 
    6.9178    9.5639    8.7317 C   0  0  0  0  0  0 
    6.9878   10.3893    9.4401 H   0  0  0  0  0  0 
    8.3102    9.2261    8.3624 C   0  0  0  0  0  0 
    8.3383    8.9633    7.2968 H   0  0  0  0  0  0 
    8.5531    7.8683    8.9862 C   0  0  0  0  0  0 
    7.8618    7.2433   10.0114 C   0  0  0  0  0  0 
    8.5533    7.4739   10.9827 N   0  0  0  0  0  0 
    9.6903    7.8585   10.7713 C   0  0  0  0  0  0 
   10.4243    8.9054   11.4870 C   0  0  0  0  0  0 
   11.4218    9.0515   10.9376 H   0  0  0  0  0  0 
   10.6758    8.5952   12.5259 H   0  0  0  0  0  0 
    9.6141   10.4811   11.5101 S   0  0  0  0  0  0 
    8.2602   10.3265   11.8886 O   0  0  0  0  0  0 
    9.9040   11.1730   10.2946 O   0  0  0  0  0  0 
   10.4785   11.3288   12.8275 C   0  0  0  0  0  0 
   11.5662   11.3513   12.5824 H   0  0  0  0  0  0 
   10.3292   10.7654   13.7744 H   0  0  0  0  0  0 
   10.0936   12.3587   12.9283 H   0  0  0  0  0  0 
    9.7318    7.9470    9.3848 N   0  0  0  0  0  0 
   10.3047    7.2128    9.0858 H   0  0  0  0  0  0 
    6.5764    7.7240   10.3632 C   0  0  0  0  0  0 
    6.4739    7.9132   11.4714 H   0  0  0  0  0  0 
  1  2  1  0
  2  3  1  0
  2 23  2  0
  3  4  4  0
  3  5  2  0
  5  6  4  0
  5  7  1  0
  7  8  3  0
  7 21  1  0
  8  9  1  0
  8 23  1  0
  9 10  2  0
 10 11  1  0
 10 21  1  0
 11 12  1  0
 11 13  1  0
 11 14  1  0
 14 15  2  0
 14 16  2  0
 14 17  1  0
 17 18  1  0
 17 19  1  0
 17 20  1  0
 21 22  1  0
 23 24  1  0
M  END
>  <name>


$$$$

 SMI23D  v 9.10   1.00000     0.00000

 31 32  0  0  0  0              1 V2000
    7.2757   15.0539   11.8779 H   0  0  0  0  0  0 
    8.3031   15.0463   12.3306 C   0  0  0  0  0  0 
    8.5157   13.2503   12.7371 S   0  0  0  0  0  0 
    9.7761   13.6315   13.9704 C   0  0  0  0  0  0 
   10.9119   12.6808   13.9614 C   0  0  0  0  0  0 
   11.7126   13.3638   14.5444 H   0  0  0  0  0  0 
   10.6200   11.9321   14.8107 H   0  0  0  0  0  0 
   11.5283   12.0542   12.9546 N   0  0  0  0  0  0 
   12.8345   11.6241   13.2492 C   0  0  0  0  0  0 
   13.5721   12.4599   13.1363 H   0  0  0  0  0  0 
   12.9355   11.2496   14.3189 H   0  0  0  0  0  0 
   13.3168   10.4270   12.4209 C   0  0  0  0  0  0 
   12.8162    9.5126   12.7936 H   0  0  0  0  0  0 
   14.4104   10.3392   12.5076 H   0  0  0  0  0  0 
   12.9571   10.6217   11.0146 N   0  0  0  0  0  0 
   13.8835   11.2420   10.2249 C   0  0  0  0  0  0 
   14.5727   12.1258   10.6948 O   0  0  0  0  0  0 
   14.2696   10.5076    8.9741 C   0  0  0  0  0  0 
   14.8929    9.6379    9.2407 H   0  0  0  0  0  0 
   13.3590   10.1976    8.4355 H   0  0  0  0  0  0 
   15.2172   11.5575    7.9014 Cl  0  0  0  0  0  0 
   11.5552   10.9707   10.7927 C   0  0  0  0  0  0 
   11.3643   11.1676    9.7432 H   0  0  0  0  0  0 
   10.9075   10.1968   11.2191 H   0  0  0  0  0  0 
   11.3465   12.2900   11.6084 C   0  0  0  0  0  0 
   10.3767   12.6852   11.2852 H   0  0  0  0  0  0 
   12.1337   13.0043   11.1903 H   0  0  0  0  0  0 
    9.5602   14.9094   14.4188 C   0  0  0  0  0  0 
    9.4082   15.3832   15.4548 H   0  0  0  0  0  0 
    8.7982   15.7690   13.4153 C   0  0  0  0  0  0 
    9.4096   16.7302   13.3072 H   0  0  0  0  0  0 
  1  2  1  0
  2  3  1  0
  2 30  2  0
  3  4  1  0
  4  5  1  0
  4 28  2  0
  5  6  1  0
  5  7  1  0
  5  8  1  0
  8  9  1  0
  8 25  1  0
  9 10  1  0
  9 11  1  0
  9 12  1  0
 12 13  1  0
 12 14  1  0
 12 15  1  0
 15 16  1  0
 15 22  1  0
 16 17  2  0
 16 18  1  0
 18 19  1  0
 18 20  1  0
 18 21  1  0
 22 23  1  0
 22 24  1  0
 22 25  1  0
 25 26  1  0
 25 27  1  0
 28 29  4  0
 28 30  1  0
 30 31  1  0
M  END
>  <name>


$$$$
