MODEL 1
REMARK VINA RESULT:      -5.7      0.000      0.000
REMARK  Name = 
REMARK  2 active torsions:
REMARK  status: ('A' for Active; 'I' for Inactive)
REMARK    1  A    between atoms: C_2  and  C_3
REMARK    2  A    between atoms: C_6  and  N_9
REMARK                            x       y       z     vdW  Elec       q    Type
REMARK                         _______ _______ _______ _____ _____    ______ ____
ROOT
ATOM      1  C   UNL     1       6.213  -0.286  19.678  0.00  0.00    +0.000 A 
ATOM      2  C   UNL     1       7.806   0.213  19.689  0.00  0.00    +0.000 A 
ATOM      3  C   UNL     1       8.519  -0.315  20.852  0.00  0.00    +0.000 A 
ATOM      4  C   UNL     1       8.118  -1.434  21.773  0.00  0.00    +0.000 A 
ATOM      5  C   UNL     1       6.690  -1.836  21.627  0.00  0.00    +0.000 A 
ATOM      6  N   UNL     1       6.127  -1.270  20.586  0.00  0.00    +0.000 NA
ENDROOT
BRANCH   4   7
ATOM      7  N   UNL     1       9.061  -2.085  22.360  0.00  0.00    +0.000 N 
ATOM      8  C   UNL     1      10.431  -1.410  22.355  0.00  0.00    +0.000 C 
ATOM      9  C   UNL     1      10.233  -0.146  23.201  0.00  0.00    +0.000 C 
ATOM     10  C   UNL     1       9.666  -0.536  24.559  0.00  0.00    +0.000 C 
ATOM     11  O   UNL     1       8.276  -0.390  24.510  0.00  0.00    +0.000 OA
ATOM     12  C   UNL     1       7.712  -1.658  24.351  0.00  0.00    +0.000 C 
ATOM     13  C   UNL     1       8.749  -2.591  23.747  0.00  0.00    +0.000 C 
ENDBRANCH   4   7
BRANCH   1  15
ATOM     14  N   UNL     1       5.906  -0.175  17.683  0.00  0.00    +0.000 NA
ATOM     15  C   UNL     1       6.270  -0.887  18.525  0.00  0.00    +0.000 C 
ENDBRANCH   1  15
TORSDOF 2
ENDMDL
MODEL 2
REMARK VINA RESULT:      -5.6      1.486      2.497
REMARK  Name = 
REMARK  2 active torsions:
REMARK  status: ('A' for Active; 'I' for Inactive)
REMARK    1  A    between atoms: C_2  and  C_3
REMARK    2  A    between atoms: C_6  and  N_9
REMARK                            x       y       z     vdW  Elec       q    Type
REMARK                         _______ _______ _______ _____ _____    ______ ____
ROOT
ATOM      1  C   UNL     1       6.671  -0.454  18.610  0.00  0.00    +0.000 A 
ATOM      2  C   UNL     1       5.816  -1.377  19.707  0.00  0.00    +0.000 A 
ATOM      3  C   UNL     1       6.510  -1.447  20.994  0.00  0.00    +0.000 A 
ATOM      4  C   UNL     1       7.626  -0.583  21.509  0.00  0.00    +0.000 A 
ATOM      5  C   UNL     1       8.271   0.244  20.448  0.00  0.00    +0.000 A 
ATOM      6  N   UNL     1       7.601   0.199  19.321  0.00  0.00    +0.000 NA
ENDROOT
BRANCH   4   7
ATOM      7  N   UNL     1       7.724  -0.440  22.784  0.00  0.00    +0.000 N 
ATOM      8  C   UNL     1       7.192  -1.600  23.623  0.00  0.00    +0.000 C 
ATOM      9  C   UNL     1       8.121  -2.771  23.281  0.00  0.00    +0.000 C 
ATOM     10  C   UNL     1       9.564  -2.353  23.528  0.00  0.00    +0.000 C 
ATOM     11  O   UNL     1      10.109  -1.924  22.313  0.00  0.00    +0.000 OA
ATOM     12  C   UNL     1      10.120  -0.527  22.312  0.00  0.00    +0.000 C 
ATOM     13  C   UNL     1       9.080  -0.021  23.300  0.00  0.00    +0.000 C 
ENDBRANCH   4   7
BRANCH   1  15
ATOM     14  N   UNL     1       6.054   1.183  17.597  0.00  0.00    +0.000 NA
ATOM     15  C   UNL     1       5.724   0.416  18.403  0.00  0.00    +0.000 C 
ENDBRANCH   1  15
TORSDOF 2
ENDMDL
MODEL 3
REMARK VINA RESULT:      -5.5      2.205      2.670
REMARK  Name = 
REMARK  2 active torsions:
REMARK  status: ('A' for Active; 'I' for Inactive)
REMARK    1  A    between atoms: C_2  and  C_3
REMARK    2  A    between atoms: C_6  and  N_9
REMARK                            x       y       z     vdW  Elec       q    Type
REMARK                         _______ _______ _______ _____ _____    ______ ____
ROOT
ATOM      1  C   UNL     1       6.455   1.090  18.813  0.00  0.00    +0.000 A 
ATOM      2  C   UNL     1       7.676   0.010  19.172  0.00  0.00    +0.000 A 
ATOM      3  C   UNL     1       8.146   0.179  20.547  0.00  0.00    +0.000 A 
ATOM      4  C   UNL     1       7.486   0.910  21.683  0.00  0.00    +0.000 A 
ATOM      5  C   UNL     1       6.369   1.795  21.246  0.00  0.00    +0.000 A 
ATOM      6  N   UNL     1       6.058   1.603  19.986  0.00  0.00    +0.000 NA
ENDROOT
BRANCH   4   7
ATOM      7  N   UNL     1       7.750   0.510  22.878  0.00  0.00    +0.000 N 
ATOM      8  C   UNL     1       8.899  -0.488  23.001  0.00  0.00    +0.000 C 
ATOM      9  C   UNL     1      10.138   0.305  22.565  0.00  0.00    +0.000 C 
ATOM     10  C   UNL     1      10.239   1.573  23.400  0.00  0.00    +0.000 C 
ATOM     11  O   UNL     1       9.653   2.619  22.679  0.00  0.00    +0.000 OA
ATOM     12  C   UNL     1       8.379   2.847  23.205  0.00  0.00    +0.000 C 
ATOM     13  C   UNL     1       7.903   1.592  23.918  0.00  0.00    +0.000 C 
ENDBRANCH   4   7
BRANCH   1  15
ATOM     14  N   UNL     1       5.999  -0.564  17.744  0.00  0.00    +0.000 NA
ATOM     15  C   UNL     1       5.564   0.189  18.513  0.00  0.00    +0.000 C 
ENDBRANCH   1  15
TORSDOF 2
ENDMDL
MODEL 4
REMARK VINA RESULT:      -5.3      2.009      3.739
REMARK  Name = 
REMARK  2 active torsions:
REMARK  status: ('A' for Active; 'I' for Inactive)
REMARK    1  A    between atoms: C_2  and  C_3
REMARK    2  A    between atoms: C_6  and  N_9
REMARK                            x       y       z     vdW  Elec       q    Type
REMARK                         _______ _______ _______ _____ _____    ______ ____
ROOT
ATOM      1  C   UNL     1       6.685  -3.824  22.697  0.00  0.00    +0.000 A 
ATOM      2  C   UNL     1       5.910  -2.841  21.592  0.00  0.00    +0.000 A 
ATOM      3  C   UNL     1       6.665  -1.609  21.359  0.00  0.00    +0.000 A 
ATOM      4  C   UNL     1       8.096  -1.304  21.702  0.00  0.00    +0.000 A 
ATOM      5  C   UNL     1       8.700  -2.287  22.646  0.00  0.00    +0.000 A 
ATOM      6  N   UNL     1       7.924  -3.330  22.828  0.00  0.00    +0.000 NA
ENDROOT
BRANCH   4   7
ATOM      7  N   UNL     1       8.708  -0.438  20.972  0.00  0.00    +0.000 N 
ATOM      8  C   UNL     1       7.827   0.357  20.011  0.00  0.00    +0.000 C 
ATOM      9  C   UNL     1       6.915   1.182  20.928  0.00  0.00    +0.000 C 
ATOM     10  C   UNL     1       7.774   1.986  21.895  0.00  0.00    +0.000 C 
ATOM     11  O   UNL     1       7.871   1.269  23.093  0.00  0.00    +0.000 OA
ATOM     12  C   UNL     1       9.120   0.644  23.123  0.00  0.00    +0.000 C 
ATOM     13  C   UNL     1       9.639   0.500  21.701  0.00  0.00    +0.000 C 
ENDBRANCH   4   7
BRANCH   1  15
ATOM     14  N   UNL     1       5.799  -5.057  21.363  0.00  0.00    +0.000 NA
ATOM     15  C   UNL     1       6.805  -4.848  21.902  0.00  0.00    +0.000 C 
ENDBRANCH   1  15
TORSDOF 2
ENDMDL
MODEL 5
REMARK VINA RESULT:      -5.1      1.817      2.362
REMARK  Name = 
REMARK  2 active torsions:
REMARK  status: ('A' for Active; 'I' for Inactive)
REMARK    1  A    between atoms: C_2  and  C_3
REMARK    2  A    between atoms: C_6  and  N_9
REMARK                            x       y       z     vdW  Elec       q    Type
REMARK                         _______ _______ _______ _____ _____    ______ ____
ROOT
ATOM      1  C   UNL     1       6.358   0.068  19.704  0.00  0.00    +0.000 A 
ATOM      2  C   UNL     1       6.328   1.525  20.519  0.00  0.00    +0.000 A 
ATOM      3  C   UNL     1       7.393   1.592  21.521  0.00  0.00    +0.000 A 
ATOM      4  C   UNL     1       8.613   0.725  21.657  0.00  0.00    +0.000 A 
ATOM      5  C   UNL     1       8.551  -0.516  20.833  0.00  0.00    +0.000 A 
ATOM      6  N   UNL     1       7.535  -0.500  20.003  0.00  0.00    +0.000 NA
ENDROOT
BRANCH   4   7
ATOM      7  N   UNL     1       9.649   1.244  22.218  0.00  0.00    +0.000 N 
ATOM      8  C   UNL     1       9.414   2.569  22.941  0.00  0.00    +0.000 C 
ATOM      9  C   UNL     1       8.474   2.207  24.098  0.00  0.00    +0.000 C 
ATOM     10  C   UNL     1       9.094   1.082  24.914  0.00  0.00    +0.000 C 
ATOM     11  O   UNL     1       8.561  -0.130  24.463  0.00  0.00    +0.000 OA
ATOM     12  C   UNL     1       9.508  -0.740  23.637  0.00  0.00    +0.000 C 
ATOM     13  C   UNL     1      10.455   0.321  23.099  0.00  0.00    +0.000 C 
ENDBRANCH   4   7
BRANCH   1  15
ATOM     14  N   UNL     1       5.955  -0.052  17.726  0.00  0.00    +0.000 NA
ATOM     15  C   UNL     1       6.518   0.583  18.518  0.00  0.00    +0.000 C 
ENDBRANCH   1  15
TORSDOF 2
ENDMDL
MODEL 6
REMARK VINA RESULT:      -5.1      2.872      5.529
REMARK  Name = 
REMARK  2 active torsions:
REMARK  status: ('A' for Active; 'I' for Inactive)
REMARK    1  A    between atoms: C_2  and  C_3
REMARK    2  A    between atoms: C_6  and  N_9
REMARK                            x       y       z     vdW  Elec       q    Type
REMARK                         _______ _______ _______ _____ _____    ______ ____
ROOT
ATOM      1  C   UNL     1       8.315  -5.160  25.693  0.00  0.00    +0.000 A 
ATOM      2  C   UNL     1       8.684  -3.789  26.571  0.00  0.00    +0.000 A 
ATOM      3  C   UNL     1       8.751  -2.610  25.707  0.00  0.00    +0.000 A 
ATOM      4  C   UNL     1       8.237  -2.440  24.305  0.00  0.00    +0.000 A 
ATOM      5  C   UNL     1       7.880  -3.729  23.647  0.00  0.00    +0.000 A 
ATOM      6  N   UNL     1       7.897  -4.731  24.493  0.00  0.00    +0.000 NA
ENDROOT
BRANCH   4   7
ATOM      7  N   UNL     1       7.908  -1.251  23.935  0.00  0.00    +0.000 N 
ATOM      8  C   UNL     1       8.419  -0.118  24.822  0.00  0.00    +0.000 C 
ATOM      9  C   UNL     1       9.944  -0.176  24.670  0.00  0.00    +0.000 C 
ATOM     10  C   UNL     1      10.302  -0.103  23.192  0.00  0.00    +0.000 C 
ATOM     11  O   UNL     1      10.479  -1.408  22.721  0.00  0.00    +0.000 OA
ATOM     12  C   UNL     1       9.329  -1.775  22.018  0.00  0.00    +0.000 C 
ATOM     13  C   UNL     1       8.165  -0.916  22.486  0.00  0.00    +0.000 C 
ENDBRANCH   4   7
BRANCH   1  15
ATOM     14  N   UNL     1       7.481  -5.668  27.462  0.00  0.00    +0.000 NA
ATOM     15  C   UNL     1       7.229  -5.451  26.350  0.00  0.00    +0.000 C 
ENDBRANCH   1  15
TORSDOF 2
ENDMDL
MODEL 7
REMARK VINA RESULT:      -4.9      1.721      2.348
REMARK  Name = 
REMARK  2 active torsions:
REMARK  status: ('A' for Active; 'I' for Inactive)
REMARK    1  A    between atoms: C_2  and  C_3
REMARK    2  A    between atoms: C_6  and  N_9
REMARK                            x       y       z     vdW  Elec       q    Type
REMARK                         _______ _______ _______ _____ _____    ______ ____
ROOT
ATOM      1  C   UNL     1       6.752   0.252  20.023  0.00  0.00    +0.000 A 
ATOM      2  C   UNL     1       8.000   0.268  21.131  0.00  0.00    +0.000 A 
ATOM      3  C   UNL     1       7.908  -0.868  22.049  0.00  0.00    +0.000 A 
ATOM      4  C   UNL     1       7.095  -2.125  21.911  0.00  0.00    +0.000 A 
ATOM      5  C   UNL     1       6.055  -2.042  20.846  0.00  0.00    +0.000 A 
ATOM      6  N   UNL     1       6.194  -0.964  20.111  0.00  0.00    +0.000 NA
ENDROOT
BRANCH   4   7
ATOM      7  N   UNL     1       7.536  -3.183  22.497  0.00  0.00    +0.000 N 
ATOM      8  C   UNL     1       8.558  -2.945  23.607  0.00  0.00    +0.000 C 
ATOM      9  C   UNL     1       7.775  -2.188  24.687  0.00  0.00    +0.000 C 
ATOM     10  C   UNL     1       6.534  -2.989  25.058  0.00  0.00    +0.000 C 
ATOM     11  O   UNL     1       5.456  -2.493  24.316  0.00  0.00    +0.000 OA
ATOM     12  C   UNL     1       5.221  -3.369  23.254  0.00  0.00    +0.000 C 
ATOM     13  C   UNL     1       6.489  -4.160  22.972  0.00  0.00    +0.000 C 
ENDBRANCH   4   7
BRANCH   1  15
ATOM     14  N   UNL     1       6.901   0.473  18.019  0.00  0.00    +0.000 NA
ATOM     15  C   UNL     1       7.513   0.204  18.967  0.00  0.00    +0.000 C 
ENDBRANCH   1  15
TORSDOF 2
ENDMDL
MODEL 8
REMARK VINA RESULT:      -4.9      2.963      4.435
REMARK  Name = 
REMARK  2 active torsions:
REMARK  status: ('A' for Active; 'I' for Inactive)
REMARK    1  A    between atoms: C_2  and  C_3
REMARK    2  A    between atoms: C_6  and  N_9
REMARK                            x       y       z     vdW  Elec       q    Type
REMARK                         _______ _______ _______ _____ _____    ______ ____
ROOT
ATOM      1  C   UNL     1      10.340  -0.482  22.947  0.00  0.00    +0.000 A 
ATOM      2  C   UNL     1       9.266  -0.909  21.743  0.00  0.00    +0.000 A 
ATOM      3  C   UNL     1       8.347  -1.953  22.200  0.00  0.00    +0.000 A 
ATOM      4  C   UNL     1       8.057  -2.401  23.605  0.00  0.00    +0.000 A 
ATOM      5  C   UNL     1       9.048  -1.904  24.600  0.00  0.00    +0.000 A 
ATOM      6  N   UNL     1       9.857  -1.012  24.080  0.00  0.00    +0.000 NA
ENDROOT
BRANCH   4   7
ATOM      7  N   UNL     1       6.895  -2.905  23.837  0.00  0.00    +0.000 N 
ATOM      8  C   UNL     1       6.081  -3.287  22.603  0.00  0.00    +0.000 C 
ATOM      9  C   UNL     1       6.885  -4.422  21.956  0.00  0.00    +0.000 C 
ATOM     10  C   UNL     1       7.122  -5.517  22.987  0.00  0.00    +0.000 C 
ATOM     11  O   UNL     1       8.384  -5.316  23.556  0.00  0.00    +0.000 OA
ATOM     12  C   UNL     1       8.205  -4.724  24.808  0.00  0.00    +0.000 C 
ATOM     13  C   UNL     1       6.853  -4.030  24.842  0.00  0.00    +0.000 C 
ENDBRANCH   4   7
BRANCH   1  15
ATOM     14  N   UNL     1      10.032   1.231  21.918  0.00  0.00    +0.000 NA
ATOM     15  C   UNL     1      10.003   0.776  22.985  0.00  0.00    +0.000 C 
ENDBRANCH   1  15
TORSDOF 2
ENDMDL
MODEL 9
REMARK VINA RESULT:      -4.9      2.025      3.004
REMARK  Name = 
REMARK  2 active torsions:
REMARK  status: ('A' for Active; 'I' for Inactive)
REMARK    1  A    between atoms: C_2  and  C_3
REMARK    2  A    between atoms: C_6  and  N_9
REMARK                            x       y       z     vdW  Elec       q    Type
REMARK                         _______ _______ _______ _____ _____    ______ ____
ROOT
ATOM      1  C   UNL     1       8.021  -0.183  20.091  0.00  0.00    +0.000 A 
ATOM      2  C   UNL     1       6.985  -0.994  21.119  0.00  0.00    +0.000 A 
ATOM      3  C   UNL     1       7.213  -0.608  22.512  0.00  0.00    +0.000 A 
ATOM      4  C   UNL     1       7.965   0.577  23.049  0.00  0.00    +0.000 A 
ATOM      5  C   UNL     1       8.805   1.258  22.023  0.00  0.00    +0.000 A 
ATOM      6  N   UNL     1       8.563   0.807  20.815  0.00  0.00    +0.000 NA
ENDROOT
BRANCH   4   7
ATOM      7  N   UNL     1       7.612   1.030  24.201  0.00  0.00    +0.000 N 
ATOM      8  C   UNL     1       6.788   0.074  25.063  0.00  0.00    +0.000 C 
ATOM      9  C   UNL     1       7.747  -1.084  25.366  0.00  0.00    +0.000 C 
ATOM     10  C   UNL     1       9.021  -0.528  25.986  0.00  0.00    +0.000 C 
ATOM     11  O   UNL     1       9.970  -0.371  24.970  0.00  0.00    +0.000 OA
ATOM     12  C   UNL     1      10.017   0.983  24.627  0.00  0.00    +0.000 C 
ATOM     13  C   UNL     1       8.710   1.645  25.034  0.00  0.00    +0.000 C 
ENDBRANCH   4   7
BRANCH   1  15
ATOM     14  N   UNL     1       7.357   0.336  18.253  0.00  0.00    +0.000 NA
ATOM     15  C   UNL     1       7.087   0.383  19.381  0.00  0.00    +0.000 C 
ENDBRANCH   1  15
TORSDOF 2
ENDMDL
