MODEL 1
REMARK VINA RESULT:      -3.7      0.000      0.000
REMARK  Name = 
REMARK  0 active torsions:
REMARK  status: ('A' for Active; 'I' for Inactive)
REMARK                            x       y       z     vdW  Elec       q    Type
REMARK                         _______ _______ _______ _____ _____    ______ ____
ROOT
ATOM      1  N   UNL     1       5.864  -0.544  17.745  0.00  0.00    +0.000 NA
ATOM      2  C   UNL     1       6.411   0.561  18.141  0.00  0.00    +0.000 A 
ATOM      3  C   UNL     1       5.214   1.319  19.042  0.00  0.00    +0.000 A 
ATOM      4  N   UNL     1       5.868   1.683  20.226  0.00  0.00    +0.000 NA
ATOM      5  C   UNL     1       6.804   1.190  20.969  0.00  0.00    +0.000 A 
ATOM      6  N   UNL     1       7.841   0.559  20.265  0.00  0.00    +0.000 NA
ATOM      7  C   UNL     1       7.534   0.186  19.095  0.00  0.00    +0.000 A 
ENDROOT
TORSDOF 0
ENDMDL
MODEL 2
REMARK VINA RESULT:      -3.5      1.658      1.962
REMARK  Name = 
REMARK  0 active torsions:
REMARK  status: ('A' for Active; 'I' for Inactive)
REMARK                            x       y       z     vdW  Elec       q    Type
REMARK                         _______ _______ _______ _____ _____    ______ ____
ROOT
ATOM      1  N   UNL     1       6.098  -0.800  17.816  0.00  0.00    +0.000 NA
ATOM      2  C   UNL     1       5.985  -0.259  18.987  0.00  0.00    +0.000 A 
ATOM      3  C   UNL     1       5.803  -1.562  20.032  0.00  0.00    +0.000 A 
ATOM      4  N   UNL     1       6.728  -1.302  21.051  0.00  0.00    +0.000 NA
ATOM      5  C   UNL     1       7.900  -0.763  21.139  0.00  0.00    +0.000 A 
ATOM      6  N   UNL     1       8.101   0.343  20.298  0.00  0.00    +0.000 NA
ATOM      7  C   UNL     1       7.319   0.400  19.305  0.00  0.00    +0.000 A 
ENDROOT
TORSDOF 0
ENDMDL
MODEL 3
REMARK VINA RESULT:      -3.4      1.165      3.035
REMARK  Name = 
REMARK  0 active torsions:
REMARK  status: ('A' for Active; 'I' for Inactive)
REMARK                            x       y       z     vdW  Elec       q    Type
REMARK                         _______ _______ _______ _____ _____    ______ ____
ROOT
ATOM      1  N   UNL     1       7.035   0.270  21.653  0.00  0.00    +0.000 NA
ATOM      2  C   UNL     1       7.224   1.024  20.617  0.00  0.00    +0.000 A 
ATOM      3  C   UNL     1       7.842  -0.015  19.452  0.00  0.00    +0.000 A 
ATOM      4  N   UNL     1       7.064   0.255  18.319  0.00  0.00    +0.000 NA
ATOM      5  C   UNL     1       5.836   0.583  18.082  0.00  0.00    +0.000 A 
ATOM      6  N   UNL     1       5.273   1.465  19.018  0.00  0.00    +0.000 NA
ATOM      7  C   UNL     1       5.853   1.481  20.143  0.00  0.00    +0.000 A 
ENDROOT
TORSDOF 0
ENDMDL
MODEL 4
REMARK VINA RESULT:      -3.2      7.783      8.923
REMARK  Name = 
REMARK  0 active torsions:
REMARK  status: ('A' for Active; 'I' for Inactive)
REMARK                            x       y       z     vdW  Elec       q    Type
REMARK                         _______ _______ _______ _____ _____    ______ ____
ROOT
ATOM      1  N   UNL     1       7.654  -5.640  27.397  0.00  0.00    +0.000 NA
ATOM      2  C   UNL     1       7.834  -4.680  26.546  0.00  0.00    +0.000 A 
ATOM      3  C   UNL     1       9.273  -5.071  25.774  0.00  0.00    +0.000 A 
ATOM      4  N   UNL     1       8.968  -4.939  24.413  0.00  0.00    +0.000 NA
ATOM      5  C   UNL     1       7.936  -5.141  23.660  0.00  0.00    +0.000 A 
ATOM      6  N   UNL     1       6.706  -4.814  24.251  0.00  0.00    +0.000 NA
ATOM      7  C   UNL     1       6.719  -4.782  25.516  0.00  0.00    +0.000 A 
ENDROOT
TORSDOF 0
ENDMDL
MODEL 5
REMARK VINA RESULT:      -3.0      5.580      6.288
REMARK  Name = 
REMARK  0 active torsions:
REMARK  status: ('A' for Active; 'I' for Inactive)
REMARK                            x       y       z     vdW  Elec       q    Type
REMARK                         _______ _______ _______ _____ _____    ______ ____
ROOT
ATOM      1  N   UNL     1       8.050  -2.802  22.799  0.00  0.00    +0.000 NA
ATOM      2  C   UNL     1       7.011  -3.559  22.954  0.00  0.00    +0.000 A 
ATOM      3  C   UNL     1       6.041  -3.212  21.628  0.00  0.00    +0.000 A 
ATOM      4  N   UNL     1       5.701  -4.474  21.125  0.00  0.00    +0.000 NA
ATOM      5  C   UNL     1       6.275  -5.629  21.025  0.00  0.00    +0.000 A 
ATOM      6  N   UNL     1       7.086  -5.977  22.117  0.00  0.00    +0.000 NA
ATOM      7  C   UNL     1       7.482  -4.998  22.814  0.00  0.00    +0.000 A 
ENDROOT
TORSDOF 0
ENDMDL
MODEL 6
REMARK VINA RESULT:      -3.0      4.484      5.556
REMARK  Name = 
REMARK  0 active torsions:
REMARK  status: ('A' for Active; 'I' for Inactive)
REMARK                            x       y       z     vdW  Elec       q    Type
REMARK                         _______ _______ _______ _____ _____    ______ ____
ROOT
ATOM      1  N   UNL     1      10.156  -2.841  23.736  0.00  0.00    +0.000 NA
ATOM      2  C   UNL     1       9.276  -1.920  23.504  0.00  0.00    +0.000 A 
ATOM      3  C   UNL     1       9.795  -0.609  24.417  0.00  0.00    +0.000 A 
ATOM      4  N   UNL     1       9.756   0.461  23.515  0.00  0.00    +0.000 NA
ATOM      5  C   UNL     1       9.967   0.630  22.250  0.00  0.00    +0.000 A 
ATOM      6  N   UNL     1       9.536  -0.430  21.438  0.00  0.00    +0.000 NA
ATOM      7  C   UNL     1       9.406  -1.537  22.038  0.00  0.00    +0.000 A 
ENDROOT
TORSDOF 0
ENDMDL
MODEL 7
REMARK VINA RESULT:      -3.0      4.022      5.737
REMARK  Name = 
REMARK  0 active torsions:
REMARK  status: ('A' for Active; 'I' for Inactive)
REMARK                            x       y       z     vdW  Elec       q    Type
REMARK                         _______ _______ _______ _____ _____    ______ ____
ROOT
ATOM      1  N   UNL     1       9.883   0.003  24.987  0.00  0.00    +0.000 NA
ATOM      2  C   UNL     1      10.545  -0.118  23.881  0.00  0.00    +0.000 A 
ATOM      3  C   UNL     1      10.016  -1.576  23.236  0.00  0.00    +0.000 A 
ATOM      4  N   UNL     1       9.709  -1.260  21.907  0.00  0.00    +0.000 NA
ATOM      5  C   UNL     1       9.231  -0.240  21.271  0.00  0.00    +0.000 A 
ATOM      6  N   UNL     1       9.655   1.006  21.759  0.00  0.00    +0.000 NA
ATOM      7  C   UNL     1      10.072   0.991  22.954  0.00  0.00    +0.000 A 
ENDROOT
TORSDOF 0
ENDMDL
MODEL 8
REMARK VINA RESULT:      -3.0      7.886      8.732
REMARK  Name = 
REMARK  0 active torsions:
REMARK  status: ('A' for Active; 'I' for Inactive)
REMARK                            x       y       z     vdW  Elec       q    Type
REMARK                         _______ _______ _______ _____ _____    ______ ____
ROOT
ATOM      1  N   UNL     1       5.988  -5.699  25.408  0.00  0.00    +0.000 NA
ATOM      2  C   UNL     1       6.804  -4.696  25.469  0.00  0.00    +0.000 A 
ATOM      3  C   UNL     1       7.615  -4.906  26.925  0.00  0.00    +0.000 A 
ATOM      4  N   UNL     1       8.964  -4.756  26.579  0.00  0.00    +0.000 NA
ATOM      5  C   UNL     1       9.707  -5.037  25.558  0.00  0.00    +0.000 A 
ATOM      6  N   UNL     1       9.083  -4.862  24.313  0.00  0.00    +0.000 NA
ATOM      7  C   UNL     1       7.818  -4.876  24.350  0.00  0.00    +0.000 A 
ENDROOT
TORSDOF 0
ENDMDL
MODEL 9
REMARK VINA RESULT:      -2.9      3.204      4.182
REMARK  Name = 
REMARK  0 active torsions:
REMARK  status: ('A' for Active; 'I' for Inactive)
REMARK                            x       y       z     vdW  Elec       q    Type
REMARK                         _______ _______ _______ _____ _____    ______ ____
ROOT
ATOM      1  N   UNL     1       7.410  -0.373  21.014  0.00  0.00    +0.000 NA
ATOM      2  C   UNL     1       8.701  -0.334  20.924  0.00  0.00    +0.000 A 
ATOM      3  C   UNL     1       9.125   1.122  21.645  0.00  0.00    +0.000 A 
ATOM      4  N   UNL     1      10.150   0.768  22.531  0.00  0.00    +0.000 NA
ATOM      5  C   UNL     1      10.436  -0.251  23.275  0.00  0.00    +0.000 A 
ATOM      6  N   UNL     1      10.117  -1.496  22.712  0.00  0.00    +0.000 NA
ATOM      7  C   UNL     1       9.243  -1.454  21.798  0.00  0.00    +0.000 A 
ENDROOT
TORSDOF 0
ENDMDL
