MODEL 1
REMARK VINA RESULT:      -5.3      0.000      0.000
REMARK  Name = 
REMARK  4 active torsions:
REMARK  status: ('A' for Active; 'I' for Inactive)
REMARK    1  A    between atoms: C_1  and  C_2
REMARK    2  A    between atoms: C_1  and  S_9
REMARK    3  A    between atoms: C_2  and  N_3
REMARK    4  A    between atoms: S_9  and  C_10
REMARK                            x       y       z     vdW  Elec       q    Type
REMARK                         _______ _______ _______ _____ _____    ______ ____
ROOT
ATOM      1  C   UNL     1       8.910  -2.614  23.495  0.00  0.00    +0.000 C 
ENDROOT
BRANCH   1   2
ATOM      2  C   UNL     1       7.989  -3.755  23.617  0.00  0.00    +0.000 C 
BRANCH   2   3
ATOM      3  N   UNL     1       7.168  -4.036  22.510  0.00  0.00    +0.000 NA
ATOM      4  C   UNL     1       5.784  -3.767  22.872  0.00  0.00    +0.000 C 
ATOM      5  C   UNL     1       5.105  -5.092  23.198  0.00  0.00    +0.000 C 
ATOM      6  O   UNL     1       4.893  -5.789  22.006  0.00  0.00    +0.000 OA
ATOM      7  C   UNL     1       6.071  -5.779  21.255  0.00  0.00    +0.000 C 
ATOM      8  C   UNL     1       7.223  -5.435  22.180  0.00  0.00    +0.000 C 
ENDBRANCH   2   3
ENDBRANCH   1   2
BRANCH   1   9
ATOM      9  S   UNL     1       8.613  -1.541  22.100  0.00  0.00    +0.000 S 
BRANCH   9  10
ATOM     10  C   UNL     1      10.068  -0.615  22.232  0.00  0.00    +0.000 A 
ATOM     11  C   UNL     1       9.610   0.835  21.592  0.00  0.00    +0.000 A 
ATOM     12  C   UNL     1      10.030   1.918  22.547  0.00  0.00    +0.000 A 
ATOM     13  C   UNL     1      10.383   2.030  23.972  0.00  0.00    +0.000 A 
ATOM     14  C   UNL     1      10.775   0.629  24.597  0.00  0.00    +0.000 A 
ATOM     15  C   UNL     1      10.400  -0.448  23.654  0.00  0.00    +0.000 A 
ENDBRANCH   9  10
ENDBRANCH   1   9
TORSDOF 4
ENDMDL
MODEL 2
REMARK VINA RESULT:      -5.2      2.171      2.802
REMARK  Name = 
REMARK  4 active torsions:
REMARK  status: ('A' for Active; 'I' for Inactive)
REMARK    1  A    between atoms: C_1  and  C_2
REMARK    2  A    between atoms: C_1  and  S_9
REMARK    3  A    between atoms: C_2  and  N_3
REMARK    4  A    between atoms: S_9  and  C_10
REMARK                            x       y       z     vdW  Elec       q    Type
REMARK                         _______ _______ _______ _____ _____    ______ ____
ROOT
ATOM      1  C   UNL     1       8.060  -2.235  23.455  0.00  0.00    +0.000 C 
ENDROOT
BRANCH   1   2
ATOM      2  C   UNL     1       7.719  -3.655  23.282  0.00  0.00    +0.000 C 
BRANCH   2   3
ATOM      3  N   UNL     1       8.202  -4.552  24.252  0.00  0.00    +0.000 NA
ATOM      4  C   UNL     1       7.074  -5.097  24.991  0.00  0.00    +0.000 C 
ATOM      5  C   UNL     1       6.964  -4.356  26.318  0.00  0.00    +0.000 C 
ATOM      6  O   UNL     1       8.002  -4.779  27.152  0.00  0.00    +0.000 OA
ATOM      7  C   UNL     1       9.202  -4.749  26.437  0.00  0.00    +0.000 C 
ATOM      8  C   UNL     1       9.012  -3.862  25.221  0.00  0.00    +0.000 C 
ENDBRANCH   2   3
ENDBRANCH   1   2
BRANCH   1   9
ATOM      9  S   UNL     1       8.124  -1.279  21.949  0.00  0.00    +0.000 S 
BRANCH   9  10
ATOM     10  C   UNL     1       9.722  -0.650  22.165  0.00  0.00    +0.000 A 
ATOM     11  C   UNL     1       9.565   0.888  21.588  0.00  0.00    +0.000 A 
ATOM     12  C   UNL     1      10.147   1.828  22.608  0.00  0.00    +0.000 A 
ATOM     13  C   UNL     1      10.465   1.806  24.045  0.00  0.00    +0.000 A 
ATOM     14  C   UNL     1      10.567   0.330  24.608  0.00  0.00    +0.000 A 
ATOM     15  C   UNL     1      10.029  -0.613  23.602  0.00  0.00    +0.000 A 
ENDBRANCH   9  10
ENDBRANCH   1   9
TORSDOF 4
ENDMDL
MODEL 3
REMARK VINA RESULT:      -5.2      1.121      1.625
REMARK  Name = 
REMARK  4 active torsions:
REMARK  status: ('A' for Active; 'I' for Inactive)
REMARK    1  A    between atoms: C_1  and  C_2
REMARK    2  A    between atoms: C_1  and  S_9
REMARK    3  A    between atoms: C_2  and  N_3
REMARK    4  A    between atoms: S_9  and  C_10
REMARK                            x       y       z     vdW  Elec       q    Type
REMARK                         _______ _______ _______ _____ _____    ______ ____
ROOT
ATOM      1  C   UNL     1       9.107  -2.903  23.820  0.00  0.00    +0.000 C 
ENDROOT
BRANCH   1   2
ATOM      2  C   UNL     1       8.188  -3.963  24.263  0.00  0.00    +0.000 C 
BRANCH   2   3
ATOM      3  N   UNL     1       7.449  -4.627  23.267  0.00  0.00    +0.000 NA
ATOM      4  C   UNL     1       6.971  -3.645  22.305  0.00  0.00    +0.000 C 
ATOM      5  C   UNL     1       5.510  -3.339  22.614  0.00  0.00    +0.000 C 
ATOM      6  O   UNL     1       4.734  -4.432  22.223  0.00  0.00    +0.000 OA
ATOM      7  C   UNL     1       5.316  -5.604  22.711  0.00  0.00    +0.000 C 
ATOM      8  C   UNL     1       6.271  -5.232  23.829  0.00  0.00    +0.000 C 
ENDBRANCH   2   3
ENDBRANCH   1   2
BRANCH   1   9
ATOM      9  S   UNL     1       9.076  -1.411  24.798  0.00  0.00    +0.000 S 
BRANCH   9  10
ATOM     10  C   UNL     1      10.324  -0.571  23.943  0.00  0.00    +0.000 A 
ATOM     11  C   UNL     1       9.802  -0.680  22.382  0.00  0.00    +0.000 A 
ATOM     12  C   UNL     1       9.856   0.697  21.777  0.00  0.00    +0.000 A 
ATOM     13  C   UNL     1       9.890   2.090  22.254  0.00  0.00    +0.000 A 
ATOM     14  C   UNL     1      10.344   2.187  23.767  0.00  0.00    +0.000 A 
ATOM     15  C   UNL     1      10.329   0.836  24.369  0.00  0.00    +0.000 A 
ENDBRANCH   9  10
ENDBRANCH   1   9
TORSDOF 4
ENDMDL
MODEL 4
REMARK VINA RESULT:      -5.0      2.290      3.267
REMARK  Name = 
REMARK  4 active torsions:
REMARK  status: ('A' for Active; 'I' for Inactive)
REMARK    1  A    between atoms: C_1  and  C_2
REMARK    2  A    between atoms: C_1  and  S_9
REMARK    3  A    between atoms: C_2  and  N_3
REMARK    4  A    between atoms: S_9  and  C_10
REMARK                            x       y       z     vdW  Elec       q    Type
REMARK                         _______ _______ _______ _____ _____    ______ ____
ROOT
ATOM      1  C   UNL     1       8.448  -0.991  24.273  0.00  0.00    +0.000 C 
ENDROOT
BRANCH   1   2
ATOM      2  C   UNL     1       7.887  -1.765  25.391  0.00  0.00    +0.000 C 
BRANCH   2   3
ATOM      3  N   UNL     1       7.569  -3.112  25.140  0.00  0.00    +0.000 NA
ATOM      4  C   UNL     1       8.375  -3.955  26.010  0.00  0.00    +0.000 C 
ATOM      5  C   UNL     1       9.544  -4.503  25.202  0.00  0.00    +0.000 C 
ATOM      6  O   UNL     1       9.063  -5.481  24.328  0.00  0.00    +0.000 OA
ATOM      7  C   UNL     1       7.934  -4.988  23.669  0.00  0.00    +0.000 C 
ATOM      8  C   UNL     1       7.931  -3.476  23.795  0.00  0.00    +0.000 C 
ENDBRANCH   2   3
ENDBRANCH   1   2
BRANCH   1   9
ATOM      9  S   UNL     1      10.065  -0.295  24.565  0.00  0.00    +0.000 S 
BRANCH   9  10
ATOM     10  C   UNL     1      10.286   0.395  22.993  0.00  0.00    +0.000 A 
ATOM     11  C   UNL     1       9.850  -0.854  22.007  0.00  0.00    +0.000 A 
ATOM     12  C   UNL     1       8.872  -0.325  20.994  0.00  0.00    +0.000 A 
ATOM     13  C   UNL     1       7.966   0.827  20.860  0.00  0.00    +0.000 A 
ATOM     14  C   UNL     1       8.357   2.005  21.843  0.00  0.00    +0.000 A 
ATOM     15  C   UNL     1       9.345   1.512  22.827  0.00  0.00    +0.000 A 
ENDBRANCH   9  10
ENDBRANCH   1   9
TORSDOF 4
ENDMDL
MODEL 5
REMARK VINA RESULT:      -4.9      1.519      2.026
REMARK  Name = 
REMARK  4 active torsions:
REMARK  status: ('A' for Active; 'I' for Inactive)
REMARK    1  A    between atoms: C_1  and  C_2
REMARK    2  A    between atoms: C_1  and  S_9
REMARK    3  A    between atoms: C_2  and  N_3
REMARK    4  A    between atoms: S_9  and  C_10
REMARK                            x       y       z     vdW  Elec       q    Type
REMARK                         _______ _______ _______ _____ _____    ______ ____
ROOT
ATOM      1  C   UNL     1       7.385  -2.013  22.288  0.00  0.00    +0.000 C 
ENDROOT
BRANCH   1   2
ATOM      2  C   UNL     1       6.662  -2.680  23.381  0.00  0.00    +0.000 C 
BRANCH   2   3
ATOM      3  N   UNL     1       6.052  -3.913  23.088  0.00  0.00    +0.000 NA
ATOM      4  C   UNL     1       6.742  -4.964  23.821  0.00  0.00    +0.000 C 
ATOM      5  C   UNL     1       7.697  -5.670  22.867  0.00  0.00    +0.000 C 
ATOM      6  O   UNL     1       6.949  -6.462  21.993  0.00  0.00    +0.000 OA
ATOM      7  C   UNL     1       5.891  -5.706  21.483  0.00  0.00    +0.000 C 
ATOM      8  C   UNL     1       6.209  -4.237  21.695  0.00  0.00    +0.000 C 
ENDBRANCH   2   3
ENDBRANCH   1   2
BRANCH   1   9
ATOM      9  S   UNL     1       9.155  -1.915  22.493  0.00  0.00    +0.000 S 
BRANCH   9  10
ATOM     10  C   UNL     1       9.422  -0.599  21.403  0.00  0.00    +0.000 A 
ATOM     11  C   UNL     1       7.887  -0.240  20.916  0.00  0.00    +0.000 A 
ATOM     12  C   UNL     1       7.689   1.244  21.063  0.00  0.00    +0.000 A 
ATOM     13  C   UNL     1       8.304   2.351  21.813  0.00  0.00    +0.000 A 
ATOM     14  C   UNL     1       9.758   1.987  22.321  0.00  0.00    +0.000 A 
ATOM     15  C   UNL     1       9.984   0.534  22.152  0.00  0.00    +0.000 A 
ENDBRANCH   9  10
ENDBRANCH   1   9
TORSDOF 4
ENDMDL
MODEL 6
REMARK VINA RESULT:      -4.9      2.488      3.718
REMARK  Name = 
REMARK  4 active torsions:
REMARK  status: ('A' for Active; 'I' for Inactive)
REMARK    1  A    between atoms: C_1  and  C_2
REMARK    2  A    between atoms: C_1  and  S_9
REMARK    3  A    between atoms: C_2  and  N_3
REMARK    4  A    between atoms: S_9  and  C_10
REMARK                            x       y       z     vdW  Elec       q    Type
REMARK                         _______ _______ _______ _____ _____    ______ ____
ROOT
ATOM      1  C   UNL     1       6.882  -0.359  23.474  0.00  0.00    +0.000 C 
ENDROOT
BRANCH   1   2
ATOM      2  C   UNL     1       6.837  -1.778  23.858  0.00  0.00    +0.000 C 
BRANCH   2   3
ATOM      3  N   UNL     1       8.052  -2.486  23.833  0.00  0.00    +0.000 NA
ATOM      4  C   UNL     1       7.981  -3.505  22.796  0.00  0.00    +0.000 C 
ATOM      5  C   UNL     1       7.681  -4.845  23.457  0.00  0.00    +0.000 C 
ATOM      6  O   UNL     1       8.831  -5.281  24.120  0.00  0.00    +0.000 OA
ATOM      7  C   UNL     1       9.344  -4.231  24.884  0.00  0.00    +0.000 C 
ATOM      8  C   UNL     1       8.250  -3.197  25.069  0.00  0.00    +0.000 C 
ENDBRANCH   2   3
ENDBRANCH   1   2
BRANCH   1   9
ATOM      9  S   UNL     1       8.442   0.459  23.761  0.00  0.00    +0.000 S 
BRANCH   9  10
ATOM     10  C   UNL     1       8.565   1.228  22.216  0.00  0.00    +0.000 A 
ATOM     11  C   UNL     1       9.052  -0.019  21.251  0.00  0.00    +0.000 A 
ATOM     12  C   UNL     1       8.160  -0.045  20.040  0.00  0.00    +0.000 A 
ATOM     13  C   UNL     1       6.829   0.458  19.663  0.00  0.00    +0.000 A 
ATOM     14  C   UNL     1       6.342   1.621  20.621  0.00  0.00    +0.000 A 
ATOM     15  C   UNL     1       7.230   1.684  21.802  0.00  0.00    +0.000 A 
ENDBRANCH   9  10
ENDBRANCH   1   9
TORSDOF 4
ENDMDL
MODEL 7
REMARK VINA RESULT:      -4.8      2.821      6.041
REMARK  Name = 
REMARK  4 active torsions:
REMARK  status: ('A' for Active; 'I' for Inactive)
REMARK    1  A    between atoms: C_1  and  C_2
REMARK    2  A    between atoms: C_1  and  S_9
REMARK    3  A    between atoms: C_2  and  N_3
REMARK    4  A    between atoms: S_9  and  C_10
REMARK                            x       y       z     vdW  Elec       q    Type
REMARK                         _______ _______ _______ _____ _____    ______ ____
ROOT
ATOM      1  C   UNL     1       8.475  -2.492  22.648  0.00  0.00    +0.000 C 
ENDROOT
BRANCH   1   2
ATOM      2  C   UNL     1       9.545  -1.593  22.188  0.00  0.00    +0.000 C 
BRANCH   2   3
ATOM      3  N   UNL     1       9.203  -0.636  21.216  0.00  0.00    +0.000 NA
ATOM      4  C   UNL     1       9.578   0.683  21.704  0.00  0.00    +0.000 C 
ATOM      5  C   UNL     1       8.329   1.373  22.238  0.00  0.00    +0.000 C 
ATOM      6  O   UNL     1       7.533   1.753  21.155  0.00  0.00    +0.000 OA
ATOM      7  C   UNL     1       7.408   0.674  20.278  0.00  0.00    +0.000 C 
ATOM      8  C   UNL     1       7.777  -0.594  21.026  0.00  0.00    +0.000 C 
ENDBRANCH   2   3
ENDBRANCH   1   2
BRANCH   1   9
ATOM      9  S   UNL     1       8.719  -3.199  24.268  0.00  0.00    +0.000 S 
BRANCH   9  10
ATOM     10  C   UNL     1       7.445  -4.367  24.184  0.00  0.00    +0.000 A 
ATOM     11  C   UNL     1       6.170  -3.448  23.683  0.00  0.00    +0.000 A 
ATOM     12  C   UNL     1       5.522  -4.148  22.519  0.00  0.00    +0.000 A 
ATOM     13  C   UNL     1       5.893  -5.168  21.525  0.00  0.00    +0.000 A 
ATOM     14  C   UNL     1       7.147  -6.016  21.986  0.00  0.00    +0.000 A 
ATOM     15  C   UNL     1       7.778  -5.360  23.152  0.00  0.00    +0.000 A 
ENDBRANCH   9  10
ENDBRANCH   1   9
TORSDOF 4
ENDMDL
MODEL 8
REMARK VINA RESULT:      -4.8      1.624      2.329
REMARK  Name = 
REMARK  4 active torsions:
REMARK  status: ('A' for Active; 'I' for Inactive)
REMARK    1  A    between atoms: C_1  and  C_2
REMARK    2  A    between atoms: C_1  and  S_9
REMARK    3  A    between atoms: C_2  and  N_3
REMARK    4  A    between atoms: S_9  and  C_10
REMARK                            x       y       z     vdW  Elec       q    Type
REMARK                         _______ _______ _______ _____ _____    ______ ____
ROOT
ATOM      1  C   UNL     1       7.622  -1.474  24.310  0.00  0.00    +0.000 C 
ENDROOT
BRANCH   1   2
ATOM      2  C   UNL     1       8.054  -2.821  23.906  0.00  0.00    +0.000 C 
BRANCH   2   3
ATOM      3  N   UNL     1       7.587  -3.299  22.669  0.00  0.00    +0.000 NA
ATOM      4  C   UNL     1       6.298  -2.687  22.385  0.00  0.00    +0.000 C 
ATOM      5  C   UNL     1       5.203  -3.690  22.727  0.00  0.00    +0.000 C 
ATOM      6  O   UNL     1       5.194  -4.690  21.752  0.00  0.00    +0.000 OA
ATOM      7  C   UNL     1       6.502  -5.134  21.542  0.00  0.00    +0.000 C 
ATOM      8  C   UNL     1       7.344  -4.716  22.732  0.00  0.00    +0.000 C 
ENDBRANCH   2   3
ENDBRANCH   1   2
BRANCH   1   9
ATOM      9  S   UNL     1       8.862  -0.493  25.138  0.00  0.00    +0.000 S 
BRANCH   9  10
ATOM     10  C   UNL     1       9.007   0.732  23.924  0.00  0.00    +0.000 A 
ATOM     11  C   UNL     1      10.161   0.095  22.931  0.00  0.00    +0.000 A 
ATOM     12  C   UNL     1       9.652   0.177  21.517  0.00  0.00    +0.000 A 
ATOM     13  C   UNL     1       8.354   0.315  20.839  0.00  0.00    +0.000 A 
ATOM     14  C   UNL     1       7.236   0.881  21.807  0.00  0.00    +0.000 A 
ATOM     15  C   UNL     1       7.732   0.840  23.201  0.00  0.00    +0.000 A 
ENDBRANCH   9  10
ENDBRANCH   1   9
TORSDOF 4
ENDMDL
MODEL 9
REMARK VINA RESULT:      -4.7      3.643      5.658
REMARK  Name = 
REMARK  4 active torsions:
REMARK  status: ('A' for Active; 'I' for Inactive)
REMARK    1  A    between atoms: C_1  and  C_2
REMARK    2  A    between atoms: C_1  and  S_9
REMARK    3  A    between atoms: C_2  and  N_3
REMARK    4  A    between atoms: S_9  and  C_10
REMARK                            x       y       z     vdW  Elec       q    Type
REMARK                         _______ _______ _______ _____ _____    ______ ____
ROOT
ATOM      1  C   UNL     1       7.582  -2.170  22.033  0.00  0.00    +0.000 C 
ENDROOT
BRANCH   1   2
ATOM      2  C   UNL     1       6.957  -0.898  21.639  0.00  0.00    +0.000 C 
BRANCH   2   3
ATOM      3  N   UNL     1       7.102  -0.502  20.297  0.00  0.00    +0.000 NA
ATOM      4  C   UNL     1       7.135   0.952  20.238  0.00  0.00    +0.000 C 
ATOM      5  C   UNL     1       5.759   1.448  19.812  0.00  0.00    +0.000 C 
ATOM      6  O   UNL     1       5.587   1.173  18.453  0.00  0.00    +0.000 OA
ATOM      7  C   UNL     1       5.954  -0.151  18.205  0.00  0.00    +0.000 C 
ATOM      8  C   UNL     1       5.955  -0.901  19.524  0.00  0.00    +0.000 C 
ENDBRANCH   2   3
ENDBRANCH   1   2
BRANCH   1   9
ATOM      9  S   UNL     1       6.447  -3.456  22.525  0.00  0.00    +0.000 S 
BRANCH   9  10
ATOM     10  C   UNL     1       7.601  -4.455  23.341  0.00  0.00    +0.000 A 
ATOM     11  C   UNL     1       8.702  -3.346  23.870  0.00  0.00    +0.000 A 
ATOM     12  C   UNL     1       8.955  -3.603  25.330  0.00  0.00    +0.000 A 
ATOM     13  C   UNL     1       8.275  -4.282  26.446  0.00  0.00    +0.000 A 
ATOM     14  C   UNL     1       7.184  -5.311  25.936  0.00  0.00    +0.000 A 
ATOM     15  C   UNL     1       6.947  -5.095  24.492  0.00  0.00    +0.000 A 
ENDBRANCH   9  10
ENDBRANCH   1   9
TORSDOF 4
ENDMDL
