MODEL 1
REMARK VINA RESULT:      -6.4      0.000      0.000
REMARK  Name = 
REMARK  4 active torsions:
REMARK  status: ('A' for Active; 'I' for Inactive)
REMARK    1  A    between atoms: C_2  and  C_3
REMARK    2  A    between atoms: N_8  and  S_11
REMARK    3  A    between atoms: S_11  and  C_14
REMARK    4  A    between atoms: C_19  and  C_20
REMARK                            x       y       z     vdW  Elec       q    Type
REMARK                         _______ _______ _______ _____ _____    ______ ____
ROOT
ATOM      1  S   UNL     1       8.691  -3.537  24.493  0.00  0.00    +0.000 S 
ATOM      2  O   UNL     1       8.269  -3.039  25.747  0.00  0.00    +0.000 OA
ATOM      3  O   UNL     1      10.074  -3.769  24.281  0.00  0.00    +0.000 OA
ENDROOT
BRANCH   1   9
ATOM      4  C   UNL     1       8.946   0.926  21.873  0.00  0.00    +0.000 C 
ATOM      5  O   UNL     1       9.022   0.147  20.917  0.00  0.00    +0.000 OA
ATOM      6  N   UNL     1       8.550   0.320  23.085  0.00  0.00    +0.000 N 
ATOM      7  C   UNL     1       7.205  -0.272  23.036  0.00  0.00    +0.000 C 
ATOM      8  C   UNL     1       7.186  -1.619  23.735  0.00  0.00    +0.000 C 
ATOM      9  N   UNL     1       8.144  -2.511  23.290  0.00  0.00    +0.000 NA
ATOM     10  C   UNL     1       9.314  -1.892  22.724  0.00  0.00    +0.000 C 
ATOM     11  C   UNL     1       9.635  -0.623  23.541  0.00  0.00    +0.000 C 
BRANCH   4  13
ATOM     12 CL   UNL     1       9.711   2.979  23.454  0.00  0.00    +0.000 Cl
ATOM     13  C   UNL     1      10.121   1.880  22.110  0.00  0.00    +0.000 C 
ENDBRANCH   4  13
ENDBRANCH   1   9
BRANCH   1  14
ATOM     14  C   UNL     1       7.822  -5.075  24.133  0.00  0.00    +0.000 A 
ATOM     15  C   UNL     1       7.003  -5.242  25.563  0.00  0.00    +0.000 A 
ATOM     16  C   UNL     1       5.538  -5.335  25.237  0.00  0.00    +0.000 A 
ATOM     17  C   UNL     1       4.654  -5.173  24.079  0.00  0.00    +0.000 A 
ATOM     18  C   UNL     1       5.434  -4.889  22.751  0.00  0.00    +0.000 A 
ATOM     19  C   UNL     1       6.923  -4.976  23.011  0.00  0.00    +0.000 A 
BRANCH  19  20
ATOM     20  C   UNL     1       7.234  -5.976  22.137  0.00  0.00    +0.000 C 
ATOM     21  N   UNL     1       6.720  -5.750  21.131  0.00  0.00    +0.000 NA
ENDBRANCH  19  20
ENDBRANCH   1  14
TORSDOF 4
ENDMDL
MODEL 2
REMARK VINA RESULT:      -6.3      3.390      6.678
REMARK  Name = 
REMARK  4 active torsions:
REMARK  status: ('A' for Active; 'I' for Inactive)
REMARK    1  A    between atoms: C_2  and  C_3
REMARK    2  A    between atoms: N_8  and  S_11
REMARK    3  A    between atoms: S_11  and  C_14
REMARK    4  A    between atoms: C_19  and  C_20
REMARK                            x       y       z     vdW  Elec       q    Type
REMARK                         _______ _______ _______ _____ _____    ______ ____
ROOT
ATOM      1  S   UNL     1       7.332  -0.765  22.596  0.00  0.00    +0.000 S 
ATOM      2  O   UNL     1       6.484  -0.650  23.721  0.00  0.00    +0.000 OA
ATOM      3  O   UNL     1       7.027  -0.015  21.432  0.00  0.00    +0.000 OA
ENDROOT
BRANCH   1   9
ATOM      4  C   UNL     1       5.440  -5.589  22.545  0.00  0.00    +0.000 C 
ATOM      5  O   UNL     1       5.606  -5.443  21.329  0.00  0.00    +0.000 OA
ATOM      6  N   UNL     1       6.066  -4.602  23.338  0.00  0.00    +0.000 N 
ATOM      7  C   UNL     1       7.530  -4.583  23.206  0.00  0.00    +0.000 C 
ATOM      8  C   UNL     1       8.044  -3.157  23.134  0.00  0.00    +0.000 C 
ATOM      9  N   UNL     1       7.442  -2.378  22.164  0.00  0.00    +0.000 NA
ATOM     10  C   UNL     1       6.110  -2.793  21.811  0.00  0.00    +0.000 C 
ATOM     11  C   UNL     1       5.396  -3.274  23.091  0.00  0.00    +0.000 C 
BRANCH   4  13
ATOM     12 CL   UNL     1       4.078  -7.039  24.374  0.00  0.00    +0.000 Cl
ATOM     13  C   UNL     1       4.015  -5.851  23.043  0.00  0.00    +0.000 C 
ENDBRANCH   4  13
ENDBRANCH   1   9
BRANCH   1  14
ATOM     14  C   UNL     1       9.024  -0.362  23.073  0.00  0.00    +0.000 A 
ATOM     15  C   UNL     1       9.517   0.356  21.665  0.00  0.00    +0.000 A 
ATOM     16  C   UNL     1       9.998   1.739  22.007  0.00  0.00    +0.000 A 
ATOM     17  C   UNL     1      10.012   2.648  23.157  0.00  0.00    +0.000 A 
ATOM     18  C   UNL     1       9.425   1.999  24.455  0.00  0.00    +0.000 A 
ATOM     19  C   UNL     1       9.104   0.543  24.191  0.00  0.00    +0.000 A 
BRANCH  19  20
ATOM     20  C   UNL     1       9.910  -0.027  25.133  0.00  0.00    +0.000 C 
ATOM     21  N   UNL     1       9.247  -0.614  25.869  0.00  0.00    +0.000 NA
ENDBRANCH  19  20
ENDBRANCH   1  14
TORSDOF 4
ENDMDL
MODEL 3
REMARK VINA RESULT:      -6.2      2.115      3.007
REMARK  Name = 
REMARK  4 active torsions:
REMARK  status: ('A' for Active; 'I' for Inactive)
REMARK    1  A    between atoms: C_2  and  C_3
REMARK    2  A    between atoms: N_8  and  S_11
REMARK    3  A    between atoms: S_11  and  C_14
REMARK    4  A    between atoms: C_19  and  C_20
REMARK                            x       y       z     vdW  Elec       q    Type
REMARK                         _______ _______ _______ _____ _____    ______ ____
ROOT
ATOM      1  S   UNL     1       8.056  -1.865  22.523  0.00  0.00    +0.000 S 
ATOM      2  O   UNL     1       9.261  -2.351  21.966  0.00  0.00    +0.000 OA
ATOM      3  O   UNL     1       7.100  -1.266  21.665  0.00  0.00    +0.000 OA
ENDROOT
BRANCH   1   9
ATOM      4  C   UNL     1      10.350   2.474  24.186  0.00  0.00    +0.000 C 
ATOM      5  O   UNL     1       9.200   2.714  24.571  0.00  0.00    +0.000 OA
ATOM      6  N   UNL     1      10.561   1.135  23.790  0.00  0.00    +0.000 N 
ATOM      7  C   UNL     1      10.368   0.163  24.876  0.00  0.00    +0.000 C 
ATOM      8  C   UNL     1       9.615  -1.056  24.377  0.00  0.00    +0.000 C 
ATOM      9  N   UNL     1       8.422  -0.774  23.739  0.00  0.00    +0.000 NA
ATOM     10  C   UNL     1       8.366   0.533  23.138  0.00  0.00    +0.000 C 
ATOM     11  C   UNL     1       9.754   0.857  22.547  0.00  0.00    +0.000 C 
BRANCH   4  13
ATOM     12 CL   UNL     1      10.746   5.111  23.749  0.00  0.00    +0.000 Cl
ATOM     13  C   UNL     1      10.977   3.437  23.174  0.00  0.00    +0.000 C 
ENDBRANCH   4  13
ENDBRANCH   1   9
BRANCH   1  14
ATOM     14  C   UNL     1       7.226  -3.194  23.416  0.00  0.00    +0.000 A 
ATOM     15  C   UNL     1       5.715  -3.033  22.758  0.00  0.00    +0.000 A 
ATOM     16  C   UNL     1       5.342  -4.360  22.155  0.00  0.00    +0.000 A 
ATOM     17  C   UNL     1       5.967  -5.653  21.862  0.00  0.00    +0.000 A 
ATOM     18  C   UNL     1       7.442  -5.748  22.379  0.00  0.00    +0.000 A 
ATOM     19  C   UNL     1       7.787  -4.495  23.157  0.00  0.00    +0.000 A 
BRANCH  19  20
ATOM     20  C   UNL     1       8.087  -5.068  24.358  0.00  0.00    +0.000 C 
ATOM     21  N   UNL     1       9.233  -5.081  24.476  0.00  0.00    +0.000 NA
ENDBRANCH  19  20
ENDBRANCH   1  14
TORSDOF 4
ENDMDL
MODEL 4
REMARK VINA RESULT:      -6.1      1.814      2.338
REMARK  Name = 
REMARK  4 active torsions:
REMARK  status: ('A' for Active; 'I' for Inactive)
REMARK    1  A    between atoms: C_2  and  C_3
REMARK    2  A    between atoms: N_8  and  S_11
REMARK    3  A    between atoms: S_11  and  C_14
REMARK    4  A    between atoms: C_19  and  C_20
REMARK                            x       y       z     vdW  Elec       q    Type
REMARK                         _______ _______ _______ _____ _____    ______ ____
ROOT
ATOM      1  S   UNL     1       6.894  -2.564  22.948  0.00  0.00    +0.000 S 
ATOM      2  O   UNL     1       6.651  -2.157  21.616  0.00  0.00    +0.000 OA
ATOM      3  O   UNL     1       5.994  -2.152  23.962  0.00  0.00    +0.000 OA
ENDROOT
BRANCH   1   9
ATOM      4  C   UNL     1      10.402   1.139  23.862  0.00  0.00    +0.000 C 
ATOM      5  O   UNL     1      10.481   0.540  24.940  0.00  0.00    +0.000 OA
ATOM      6  N   UNL     1       9.699   0.437  22.859  0.00  0.00    +0.000 N 
ATOM      7  C   UNL     1      10.328  -0.837  22.482  0.00  0.00    +0.000 C 
ATOM      8  C   UNL     1       9.281  -1.922  22.308  0.00  0.00    +0.000 C 
ATOM      9  N   UNL     1       8.435  -2.081  23.389  0.00  0.00    +0.000 NA
ATOM     10  C   UNL     1       8.272  -0.900  24.195  0.00  0.00    +0.000 C 
ATOM     11  C   UNL     1       8.249   0.327  23.259  0.00  0.00    +0.000 C 
BRANCH   4  13
ATOM     12 CL   UNL     1      11.330   3.627  23.360  0.00  0.00    +0.000 Cl
ATOM     13  C   UNL     1       9.966   2.608  23.894  0.00  0.00    +0.000 C 
ENDBRANCH   4  13
ENDBRANCH   1   9
BRANCH   1  14
ATOM     14  C   UNL     1       7.004  -4.362  23.017  0.00  0.00    +0.000 A 
ATOM     15  C   UNL     1       7.315  -4.533  24.635  0.00  0.00    +0.000 A 
ATOM     16  C   UNL     1       6.251  -5.428  25.208  0.00  0.00    +0.000 A 
ATOM     17  C   UNL     1       4.986  -6.042  24.794  0.00  0.00    +0.000 A 
ATOM     18  C   UNL     1       4.639  -5.769  23.292  0.00  0.00    +0.000 A 
ATOM     19  C   UNL     1       5.784  -5.026  22.635  0.00  0.00    +0.000 A 
BRANCH  19  20
ATOM     20  C   UNL     1       6.087  -5.926  21.655  0.00  0.00    +0.000 C 
ATOM     21  N   UNL     1       6.006  -5.394  20.638  0.00  0.00    +0.000 NA
ENDBRANCH  19  20
ENDBRANCH   1  14
TORSDOF 4
ENDMDL
MODEL 5
REMARK VINA RESULT:      -6.1      2.900      6.022
REMARK  Name = 
REMARK  4 active torsions:
REMARK  status: ('A' for Active; 'I' for Inactive)
REMARK    1  A    between atoms: C_2  and  C_3
REMARK    2  A    between atoms: N_8  and  S_11
REMARK    3  A    between atoms: S_11  and  C_14
REMARK    4  A    between atoms: C_19  and  C_20
REMARK                            x       y       z     vdW  Elec       q    Type
REMARK                         _______ _______ _______ _____ _____    ______ ____
ROOT
ATOM      1  S   UNL     1       9.264  -1.929  23.481  0.00  0.00    +0.000 S 
ATOM      2  O   UNL     1      10.453  -2.060  22.728  0.00  0.00    +0.000 OA
ATOM      3  O   UNL     1       9.337  -2.016  24.894  0.00  0.00    +0.000 OA
ENDROOT
BRANCH   1   9
ATOM      4  C   UNL     1       4.640  -4.248  23.781  0.00  0.00    +0.000 C 
ATOM      5  O   UNL     1       4.606  -3.923  22.589  0.00  0.00    +0.000 OA
ATOM      6  N   UNL     1       5.915  -4.132  24.378  0.00  0.00    +0.000 N 
ATOM      7  C   UNL     1       6.930  -5.004  23.769  0.00  0.00    +0.000 C 
ATOM      8  C   UNL     1       8.247  -4.267  23.614  0.00  0.00    +0.000 C 
ATOM      9  N   UNL     1       8.155  -3.062  22.944  0.00  0.00    +0.000 NA
ATOM     10  C   UNL     1       6.863  -2.433  23.029  0.00  0.00    +0.000 C 
ATOM     11  C   UNL     1       6.296  -2.675  24.443  0.00  0.00    +0.000 C 
BRANCH   4  13
ATOM     12 CL   UNL     1       3.731  -4.417  26.320  0.00  0.00    +0.000 Cl
ATOM     13  C   UNL     1       3.561  -3.675  24.706  0.00  0.00    +0.000 C 
ENDBRANCH   4  13
ENDBRANCH   1   9
BRANCH   1  14
ATOM     14  C   UNL     1       8.464  -0.364  23.075  0.00  0.00    +0.000 A 
ATOM     15  C   UNL     1       8.569   0.364  24.559  0.00  0.00    +0.000 A 
ATOM     16  C   UNL     1       9.295   1.667  24.373  0.00  0.00    +0.000 A 
ATOM     17  C   UNL     1      10.039   2.375  23.327  0.00  0.00    +0.000 A 
ATOM     18  C   UNL     1      10.040   1.615  21.958  0.00  0.00    +0.000 A 
ATOM     19  C   UNL     1       9.158   0.387  22.061  0.00  0.00    +0.000 A 
BRANCH  19  20
ATOM     20  C   UNL     1       8.262   0.687  21.076  0.00  0.00    +0.000 C 
ATOM     21  N   UNL     1       8.304  -0.147  20.283  0.00  0.00    +0.000 NA
ENDBRANCH  19  20
ENDBRANCH   1  14
TORSDOF 4
ENDMDL
MODEL 6
REMARK VINA RESULT:      -6.0      2.176      2.714
REMARK  Name = 
REMARK  4 active torsions:
REMARK  status: ('A' for Active; 'I' for Inactive)
REMARK    1  A    between atoms: C_2  and  C_3
REMARK    2  A    between atoms: N_8  and  S_11
REMARK    3  A    between atoms: S_11  and  C_14
REMARK    4  A    between atoms: C_19  and  C_20
REMARK                            x       y       z     vdW  Elec       q    Type
REMARK                         _______ _______ _______ _____ _____    ______ ____
ROOT
ATOM      1  S   UNL     1       8.217  -1.831  25.683  0.00  0.00    +0.000 S 
ATOM      2  O   UNL     1       6.890  -1.347  25.630  0.00  0.00    +0.000 OA
ATOM      3  O   UNL     1       8.921  -1.758  26.911  0.00  0.00    +0.000 OA
ENDROOT
BRANCH   1   9
ATOM      4  C   UNL     1       8.663   0.413  21.034  0.00  0.00    +0.000 C 
ATOM      5  O   UNL     1       9.105   1.336  21.727  0.00  0.00    +0.000 OA
ATOM      6  N   UNL     1       8.543  -0.818  21.715  0.00  0.00    +0.000 N 
ATOM      7  C   UNL     1       9.827  -1.352  22.194  0.00  0.00    +0.000 C 
ATOM      8  C   UNL     1       9.681  -1.922  23.593  0.00  0.00    +0.000 C 
ATOM      9  N   UNL     1       9.125  -1.052  24.512  0.00  0.00    +0.000 NA
ATOM     10  C   UNL     1       8.267  -0.050  23.938  0.00  0.00    +0.000 C 
ATOM     11  C   UNL     1       7.480  -0.692  22.776  0.00  0.00    +0.000 C 
BRANCH   4  13
ATOM     12 CL   UNL     1       7.625  -0.026  18.578  0.00  0.00    +0.000 Cl
ATOM     13  C   UNL     1       7.408   0.687  20.199  0.00  0.00    +0.000 C 
ENDBRANCH   4  13
ENDBRANCH   1   9
BRANCH   1  14
ATOM     14  C   UNL     1       8.253  -3.550  25.138  0.00  0.00    +0.000 A 
ATOM     15  C   UNL     1       8.730  -4.254  26.559  0.00  0.00    +0.000 A 
ATOM     16  C   UNL     1       7.696  -5.284  26.923  0.00  0.00    +0.000 A 
ATOM     17  C   UNL     1       6.367  -5.717  26.480  0.00  0.00    +0.000 A 
ATOM     18  C   UNL     1       5.871  -4.954  25.205  0.00  0.00    +0.000 A 
ATOM     19  C   UNL     1       6.970  -4.040  24.703  0.00  0.00    +0.000 A 
BRANCH  19  20
ATOM     20  C   UNL     1       7.124  -4.562  23.452  0.00  0.00    +0.000 C 
ATOM     21  N   UNL     1       8.136  -5.111  23.411  0.00  0.00    +0.000 NA
ENDBRANCH  19  20
ENDBRANCH   1  14
TORSDOF 4
ENDMDL
MODEL 7
REMARK VINA RESULT:      -6.0      3.078      6.390
REMARK  Name = 
REMARK  4 active torsions:
REMARK  status: ('A' for Active; 'I' for Inactive)
REMARK    1  A    between atoms: C_2  and  C_3
REMARK    2  A    between atoms: N_8  and  S_11
REMARK    3  A    between atoms: S_11  and  C_14
REMARK    4  A    between atoms: C_19  and  C_20
REMARK                            x       y       z     vdW  Elec       q    Type
REMARK                         _______ _______ _______ _____ _____    ______ ____
ROOT
ATOM      1  S   UNL     1       9.329  -1.632  22.630  0.00  0.00    +0.000 S 
ATOM      2  O   UNL     1       8.589  -1.963  21.472  0.00  0.00    +0.000 OA
ATOM      3  O   UNL     1      10.457  -2.421  22.968  0.00  0.00    +0.000 OA
ENDROOT
BRANCH   1   9
ATOM      4  C   UNL     1       6.397  -4.068  26.141  0.00  0.00    +0.000 C 
ATOM      5  O   UNL     1       7.097  -3.404  26.914  0.00  0.00    +0.000 OA
ATOM      6  N   UNL     1       6.489  -3.670  24.789  0.00  0.00    +0.000 N 
ATOM      7  C   UNL     1       6.031  -2.294  24.548  0.00  0.00    +0.000 C 
ATOM      8  C   UNL     1       6.961  -1.580  23.585  0.00  0.00    +0.000 C 
ATOM      9  N   UNL     1       8.294  -1.609  23.946  0.00  0.00    +0.000 NA
ATOM     10  C   UNL     1       8.663  -2.731  24.768  0.00  0.00    +0.000 C 
ATOM     11  C   UNL     1       7.878  -3.968  24.282  0.00  0.00    +0.000 C 
BRANCH   4  13
ATOM     12 CL   UNL     1       5.147  -6.302  25.277  0.00  0.00    +0.000 Cl
ATOM     13  C   UNL     1       6.460  -5.594  26.256  0.00  0.00    +0.000 C 
ENDBRANCH   4  13
ENDBRANCH   1   9
BRANCH   1  14
ATOM     14  C   UNL     1       9.878   0.083  22.524  0.00  0.00    +0.000 A 
ATOM     15  C   UNL     1       8.983   0.552  21.212  0.00  0.00    +0.000 A 
ATOM     16  C   UNL     1       8.157   1.737  21.629  0.00  0.00    +0.000 A 
ATOM     17  C   UNL     1       7.817   2.469  22.853  0.00  0.00    +0.000 A 
ATOM     18  C   UNL     1       8.576   1.933  24.114  0.00  0.00    +0.000 A 
ATOM     19  C   UNL     1       9.559   0.860  23.694  0.00  0.00    +0.000 A 
BRANCH  19  20
ATOM     20  C   UNL     1      10.711   1.442  24.136  0.00  0.00    +0.000 C 
ATOM     21  N   UNL     1      11.289   0.669  24.764  0.00  0.00    +0.000 NA
ENDBRANCH  19  20
ENDBRANCH   1  14
TORSDOF 4
ENDMDL
MODEL 8
REMARK VINA RESULT:      -5.9      2.949      6.238
REMARK  Name = 
REMARK  4 active torsions:
REMARK  status: ('A' for Active; 'I' for Inactive)
REMARK    1  A    between atoms: C_2  and  C_3
REMARK    2  A    between atoms: N_8  and  S_11
REMARK    3  A    between atoms: S_11  and  C_14
REMARK    4  A    between atoms: C_19  and  C_20
REMARK                            x       y       z     vdW  Elec       q    Type
REMARK                         _______ _______ _______ _____ _____    ______ ____
ROOT
ATOM      1  S   UNL     1       8.974  -2.369  24.418  0.00  0.00    +0.000 S 
ATOM      2  O   UNL     1      10.008  -3.151  23.854  0.00  0.00    +0.000 OA
ATOM      3  O   UNL     1       8.725  -2.468  25.810  0.00  0.00    +0.000 OA
ENDROOT
BRANCH   1   9
ATOM      4  C   UNL     1       4.958  -5.473  23.371  0.00  0.00    +0.000 C 
ATOM      5  O   UNL     1       4.329  -4.459  23.691  0.00  0.00    +0.000 OA
ATOM      6  N   UNL     1       6.337  -5.255  23.155  0.00  0.00    +0.000 N 
ATOM      7  C   UNL     1       6.620  -4.329  22.049  0.00  0.00    +0.000 C 
ATOM      8  C   UNL     1       7.741  -3.376  22.421  0.00  0.00    +0.000 C 
ATOM      9  N   UNL     1       7.546  -2.696  23.608  0.00  0.00    +0.000 NA
ATOM     10  C   UNL     1       6.695  -3.375  24.549  0.00  0.00    +0.000 C 
ATOM     11  C   UNL     1       6.988  -4.888  24.465  0.00  0.00    +0.000 C 
BRANCH   4  13
ATOM     12 CL   UNL     1       3.939  -6.293  25.735  0.00  0.00    +0.000 Cl
ATOM     13  C   UNL     1       4.740  -6.740  24.204  0.00  0.00    +0.000 C 
ENDBRANCH   4  13
ENDBRANCH   1   9
BRANCH   1  14
ATOM     14  C   UNL     1       9.259  -0.630  24.039  0.00  0.00    +0.000 A 
ATOM     15  C   UNL     1      10.310  -0.817  22.773  0.00  0.00    +0.000 A 
ATOM     16  C   UNL     1       9.726  -0.098  21.589  0.00  0.00    +0.000 A 
ATOM     17  C   UNL     1       8.474   0.564  21.209  0.00  0.00    +0.000 A 
ATOM     18  C   UNL     1       7.436   0.624  22.380  0.00  0.00    +0.000 A 
ATOM     19  C   UNL     1       8.066   0.073  23.643  0.00  0.00    +0.000 A 
BRANCH  19  20
ATOM     20  C   UNL     1       7.948   1.177  24.438  0.00  0.00    +0.000 C 
ATOM     21  N   UNL     1       8.975   1.394  24.911  0.00  0.00    +0.000 NA
ENDBRANCH  19  20
ENDBRANCH   1  14
TORSDOF 4
ENDMDL
MODEL 9
REMARK VINA RESULT:      -5.8      1.964      2.434
REMARK  Name = 
REMARK  4 active torsions:
REMARK  status: ('A' for Active; 'I' for Inactive)
REMARK    1  A    between atoms: C_2  and  C_3
REMARK    2  A    between atoms: N_8  and  S_11
REMARK    3  A    between atoms: S_11  and  C_14
REMARK    4  A    between atoms: C_19  and  C_20
REMARK                            x       y       z     vdW  Elec       q    Type
REMARK                         _______ _______ _______ _____ _____    ______ ____
ROOT
ATOM      1  S   UNL     1       9.118  -2.320  22.927  0.00  0.00    +0.000 S 
ATOM      2  O   UNL     1      10.022  -2.872  23.863  0.00  0.00    +0.000 OA
ATOM      3  O   UNL     1       9.589  -2.001  21.629  0.00  0.00    +0.000 OA
ENDROOT
BRANCH   1   9
ATOM      4  C   UNL     1       9.309   2.716  24.135  0.00  0.00    +0.000 C 
ATOM      5  O   UNL     1       8.253   2.720  23.492  0.00  0.00    +0.000 OA
ATOM      6  N   UNL     1       9.772   1.427  24.480  0.00  0.00    +0.000 N 
ATOM      7  C   UNL     1       8.851   0.686  25.354  0.00  0.00    +0.000 C 
ATOM      8  C   UNL     1       8.750  -0.764  24.919  0.00  0.00    +0.000 C 
ATOM      9  N   UNL     1       8.430  -0.944  23.586  0.00  0.00    +0.000 NA
ATOM     10  C   UNL     1       8.816   0.148  22.732  0.00  0.00    +0.000 C 
ATOM     11  C   UNL     1      10.172   0.695  23.223  0.00  0.00    +0.000 C 
BRANCH   4  13
ATOM     12 CL   UNL     1      10.135   5.286  24.017  0.00  0.00    +0.000 Cl
ATOM     13  C   UNL     1      10.463   3.578  23.615  0.00  0.00    +0.000 C 
ENDBRANCH   4  13
ENDBRANCH   1   9
BRANCH   1  14
ATOM     14  C   UNL     1       7.703  -3.421  22.735  0.00  0.00    +0.000 A 
ATOM     15  C   UNL     1       8.097  -4.541  23.890  0.00  0.00    +0.000 A 
ATOM     16  C   UNL     1       6.945  -4.621  24.854  0.00  0.00    +0.000 A 
ATOM     17  C   UNL     1       5.693  -3.913  25.137  0.00  0.00    +0.000 A 
ATOM     18  C   UNL     1       5.393  -2.770  24.109  0.00  0.00    +0.000 A 
ATOM     19  C   UNL     1       6.441  -2.786  23.015  0.00  0.00    +0.000 A 
BRANCH  19  20
ATOM     20  C   UNL     1       5.624  -2.987  21.941  0.00  0.00    +0.000 C 
ATOM     21  N   UNL     1       5.944  -3.962  21.421  0.00  0.00    +0.000 NA
ENDBRANCH  19  20
ENDBRANCH   1  14
TORSDOF 4
ENDMDL
