MODEL 1
REMARK VINA RESULT:      -5.6      0.000      0.000
REMARK  Name = 
REMARK  2 active torsions:
REMARK  status: ('A' for Active; 'I' for Inactive)
REMARK    1  A    between atoms: C_2  and  C_3
REMARK    2  A    between atoms: C_11  and  C_13
REMARK                            x       y       z     vdW  Elec       q    Type
REMARK                         _______ _______ _______ _____ _____    ______ ____
ROOT
ATOM      1  C   UNL     1       7.542  -2.659  24.104  0.00  0.00    +0.000 C 
ATOM      2  O   UNL     1       6.963  -3.085  25.085  0.00  0.00    +0.000 OA
ATOM      3  N   UNL     1       8.691  -1.955  24.243  0.00  0.00    +0.000 N 
ATOM      4  C   UNL     1       8.657  -0.650  24.870  0.00  0.00    +0.000 C 
ATOM      5  C   UNL     1       9.827   0.189  24.379  0.00  0.00    +0.000 C 
ATOM      6  N   UNL     1      10.105  -0.133  22.989  0.00  0.00    +0.000 N 
ATOM      7  C   UNL     1      10.449  -1.495  22.625  0.00  0.00    +0.000 C 
ATOM      8  C   UNL     1       9.917  -2.462  23.669  0.00  0.00    +0.000 C 
ATOM      9  C   UNL     1       9.691   0.722  22.021  0.00  0.00    +0.000 C 
ATOM     10  O   UNL     1      10.190   1.820  21.909  0.00  0.00    +0.000 OA
ENDROOT
BRANCH   9  11
ATOM     11  C   UNL     1       8.328   0.450  21.748  0.00  0.00    +0.000 C 
ATOM     12  C   UNL     1       7.270   1.483  22.062  0.00  0.00    +0.000 C 
ATOM     13  C   UNL     1       6.383   1.601  20.822  0.00  0.00    +0.000 C 
ATOM     14  C   UNL     1       6.615   0.614  19.785  0.00  0.00    +0.000 C 
ATOM     15  S   UNL     1       8.121   0.026  20.190  0.00  0.00    +0.000 S 
ENDBRANCH   9  11
BRANCH   1  17
ATOM     16 CL   UNL     1       5.950  -2.462  21.930  0.00  0.00    +0.000 Cl
ATOM     17  C   UNL     1       7.316  -3.271  22.737  0.00  0.00    +0.000 C 
ENDBRANCH   1  17
TORSDOF 2
ENDMDL
MODEL 2
REMARK VINA RESULT:      -5.2      1.641      1.878
REMARK  Name = 
REMARK  2 active torsions:
REMARK  status: ('A' for Active; 'I' for Inactive)
REMARK    1  A    between atoms: C_2  and  C_3
REMARK    2  A    between atoms: C_11  and  C_13
REMARK                            x       y       z     vdW  Elec       q    Type
REMARK                         _______ _______ _______ _____ _____    ______ ____
ROOT
ATOM      1  C   UNL     1       6.701  -3.872  23.579  0.00  0.00    +0.000 C 
ATOM      2  O   UNL     1       5.755  -4.475  24.049  0.00  0.00    +0.000 OA
ATOM      3  N   UNL     1       7.616  -3.297  24.394  0.00  0.00    +0.000 N 
ATOM      4  C   UNL     1       7.229  -2.174  25.222  0.00  0.00    +0.000 C 
ATOM      5  C   UNL     1       8.449  -1.322  25.540  0.00  0.00    +0.000 C 
ATOM      6  N   UNL     1       9.356  -1.332  24.405  0.00  0.00    +0.000 N 
ATOM      7  C   UNL     1       9.899  -2.592  23.932  0.00  0.00    +0.000 C 
ATOM      8  C   UNL     1       8.992  -3.736  24.351  0.00  0.00    +0.000 C 
ATOM      9  C   UNL     1       9.396  -0.250  23.587  0.00  0.00    +0.000 C 
ATOM     10  O   UNL     1       9.833   0.809  23.980  0.00  0.00    +0.000 OA
ENDROOT
BRANCH   9  11
ATOM     11  C   UNL     1       8.331  -0.361  22.659  0.00  0.00    +0.000 C 
ATOM     12  C   UNL     1       7.197   0.639  22.681  0.00  0.00    +0.000 C 
ATOM     13  C   UNL     1       6.983   1.098  21.239  0.00  0.00    +0.000 C 
ATOM     14  C   UNL     1       7.719   0.365  20.228  0.00  0.00    +0.000 C 
ATOM     15  S   UNL     1       8.893  -0.398  21.132  0.00  0.00    +0.000 S 
ENDBRANCH   9  11
BRANCH   1  17
ATOM     16 CL   UNL     1       7.211  -5.889  21.856  0.00  0.00    +0.000 Cl
ATOM     17  C   UNL     1       7.167  -4.135  22.161  0.00  0.00    +0.000 C 
ENDBRANCH   1  17
TORSDOF 2
ENDMDL
MODEL 3
REMARK VINA RESULT:      -5.2      2.375      5.017
REMARK  Name = 
REMARK  2 active torsions:
REMARK  status: ('A' for Active; 'I' for Inactive)
REMARK    1  A    between atoms: C_2  and  C_3
REMARK    2  A    between atoms: C_11  and  C_13
REMARK                            x       y       z     vdW  Elec       q    Type
REMARK                         _______ _______ _______ _____ _____    ______ ____
ROOT
ATOM      1  C   UNL     1       8.768  -0.773  22.025  0.00  0.00    +0.000 C 
ATOM      2  O   UNL     1       9.807  -0.268  21.645  0.00  0.00    +0.000 OA
ATOM      3  N   UNL     1       8.512  -0.891  23.349  0.00  0.00    +0.000 N 
ATOM      4  C   UNL     1       9.316  -1.785  24.155  0.00  0.00    +0.000 C 
ATOM      5  C   UNL     1       8.522  -2.242  25.370  0.00  0.00    +0.000 C 
ATOM      6  N   UNL     1       7.119  -2.371  25.011  0.00  0.00    +0.000 N 
ATOM      7  C   UNL     1       6.398  -1.215  24.511  0.00  0.00    +0.000 C 
ATOM      8  C   UNL     1       7.373  -0.210  23.924  0.00  0.00    +0.000 C 
ATOM      9  C   UNL     1       6.608  -3.609  24.795  0.00  0.00    +0.000 C 
ATOM     10  O   UNL     1       6.491  -4.399  25.706  0.00  0.00    +0.000 OA
ENDROOT
BRANCH   9  11
ATOM     11  C   UNL     1       6.921  -3.988  23.466  0.00  0.00    +0.000 C 
ATOM     12  C   UNL     1       7.803  -5.188  23.206  0.00  0.00    +0.000 C 
ATOM     13  C   UNL     1       7.102  -6.033  22.142  0.00  0.00    +0.000 C 
ATOM     14  C   UNL     1       5.942  -5.426  21.519  0.00  0.00    +0.000 C 
ATOM     15  S   UNL     1       5.565  -4.206  22.591  0.00  0.00    +0.000 S 
ENDBRANCH   9  11
BRANCH   1  17
ATOM     16 CL   UNL     1       7.846   0.128  19.651  0.00  0.00    +0.000 Cl
ATOM     17  C   UNL     1       7.554  -0.836  21.120  0.00  0.00    +0.000 C 
ENDBRANCH   1  17
TORSDOF 2
ENDMDL
MODEL 4
REMARK VINA RESULT:      -5.2      2.580      3.493
REMARK  Name = 
REMARK  2 active torsions:
REMARK  status: ('A' for Active; 'I' for Inactive)
REMARK    1  A    between atoms: C_2  and  C_3
REMARK    2  A    between atoms: C_11  and  C_13
REMARK                            x       y       z     vdW  Elec       q    Type
REMARK                         _______ _______ _______ _____ _____    ______ ____
ROOT
ATOM      1  C   UNL     1       9.184  -2.791  24.044  0.00  0.00    +0.000 C 
ATOM      2  O   UNL     1      10.151  -3.511  24.205  0.00  0.00    +0.000 OA
ATOM      3  N   UNL     1       8.830  -2.394  22.799  0.00  0.00    +0.000 N 
ATOM      4  C   UNL     1       9.699  -1.503  22.059  0.00  0.00    +0.000 C 
ATOM      5  C   UNL     1       8.886  -0.714  21.043  0.00  0.00    +0.000 C 
ATOM      6  N   UNL     1       7.567  -0.437  21.587  0.00  0.00    +0.000 N 
ATOM      7  C   UNL     1       6.706  -1.540  21.975  0.00  0.00    +0.000 C 
ATOM      8  C   UNL     1       7.542  -2.774  22.264  0.00  0.00    +0.000 C 
ATOM      9  C   UNL     1       7.301   0.804  22.066  0.00  0.00    +0.000 C 
ATOM     10  O   UNL     1       7.238   1.756  21.319  0.00  0.00    +0.000 OA
ENDROOT
BRANCH   9  11
ATOM     11  C   UNL     1       7.798   0.880  23.391  0.00  0.00    +0.000 C 
ATOM     12  C   UNL     1       8.967   1.783  23.712  0.00  0.00    +0.000 C 
ATOM     13  C   UNL     1       8.580   2.585  24.955  0.00  0.00    +0.000 C 
ATOM     14  C   UNL     1       7.356   2.173  25.615  0.00  0.00    +0.000 C 
ATOM     15  S   UNL     1       6.609   1.264  24.435  0.00  0.00    +0.000 S 
ENDBRANCH   9  11
BRANCH   1  17
ATOM     16 CL   UNL     1       8.483  -1.438  26.275  0.00  0.00    +0.000 Cl
ATOM     17  C   UNL     1       8.090  -2.708  25.089  0.00  0.00    +0.000 C 
ENDBRANCH   1  17
TORSDOF 2
ENDMDL
MODEL 5
REMARK VINA RESULT:      -5.1      3.257      4.594
REMARK  Name = 
REMARK  2 active torsions:
REMARK  status: ('A' for Active; 'I' for Inactive)
REMARK    1  A    between atoms: C_2  and  C_3
REMARK    2  A    between atoms: C_11  and  C_13
REMARK                            x       y       z     vdW  Elec       q    Type
REMARK                         _______ _______ _______ _____ _____    ______ ____
ROOT
ATOM      1  C   UNL     1       7.560  -4.823  25.601  0.00  0.00    +0.000 C 
ATOM      2  O   UNL     1       8.205  -5.750  26.053  0.00  0.00    +0.000 OA
ATOM      3  N   UNL     1       6.756  -5.012  24.527  0.00  0.00    +0.000 N 
ATOM      4  C   UNL     1       7.345  -5.316  23.240  0.00  0.00    +0.000 C 
ATOM      5  C   UNL     1       6.406  -4.875  22.126  0.00  0.00    +0.000 C 
ATOM      6  N   UNL     1       5.706  -3.668  22.532  0.00  0.00    +0.000 N 
ATOM      7  C   UNL     1       4.880  -3.686  23.725  0.00  0.00    +0.000 C 
ATOM      8  C   UNL     1       5.332  -4.802  24.652  0.00  0.00    +0.000 C 
ATOM      9  C   UNL     1       6.108  -2.474  22.029  0.00  0.00    +0.000 C 
ATOM     10  O   UNL     1       5.961  -2.214  20.855  0.00  0.00    +0.000 OA
ENDROOT
BRANCH   9  11
ATOM     11  C   UNL     1       7.209  -2.021  22.798  0.00  0.00    +0.000 C 
ATOM     12  C   UNL     1       8.597  -2.005  22.201  0.00  0.00    +0.000 C 
ATOM     13  C   UNL     1       9.196  -0.631  22.507  0.00  0.00    +0.000 C 
ATOM     14  C   UNL     1       8.432   0.201  23.416  0.00  0.00    +0.000 C 
ATOM     15  S   UNL     1       6.933  -0.527  23.383  0.00  0.00    +0.000 S 
ENDBRANCH   9  11
BRANCH   1  17
ATOM     16 CL   UNL     1       8.501  -2.372  26.235  0.00  0.00    +0.000 Cl
ATOM     17  C   UNL     1       7.238  -3.609  26.448  0.00  0.00    +0.000 C 
ENDBRANCH   1  17
TORSDOF 2
ENDMDL
MODEL 6
REMARK VINA RESULT:      -5.0      2.459      4.623
REMARK  Name = 
REMARK  2 active torsions:
REMARK  status: ('A' for Active; 'I' for Inactive)
REMARK    1  A    between atoms: C_2  and  C_3
REMARK    2  A    between atoms: C_11  and  C_13
REMARK                            x       y       z     vdW  Elec       q    Type
REMARK                         _______ _______ _______ _____ _____    ______ ____
ROOT
ATOM      1  C   UNL     1       7.646   0.731  22.152  0.00  0.00    +0.000 C 
ATOM      2  O   UNL     1       7.500   1.371  21.128  0.00  0.00    +0.000 OA
ATOM      3  N   UNL     1       8.864   0.237  22.479  0.00  0.00    +0.000 N 
ATOM      4  C   UNL     1       9.453  -0.806  21.665  0.00  0.00    +0.000 C 
ATOM      5  C   UNL     1      10.432  -1.621  22.499  0.00  0.00    +0.000 C 
ATOM      6  N   UNL     1       9.945  -1.713  23.865  0.00  0.00    +0.000 N 
ATOM      7  C   UNL     1       9.727  -0.500  24.631  0.00  0.00    +0.000 C 
ATOM      8  C   UNL     1       9.514   0.675  23.693  0.00  0.00    +0.000 C 
ATOM      9  C   UNL     1       9.360  -2.865  24.278  0.00  0.00    +0.000 C 
ATOM     10  O   UNL     1      10.008  -3.881  24.396  0.00  0.00    +0.000 OA
ENDROOT
BRANCH   9  11
ATOM     11  C   UNL     1       8.006  -2.844  23.861  0.00  0.00    +0.000 C 
ATOM     12  C   UNL     1       7.523  -3.808  22.800  0.00  0.00    +0.000 C 
ATOM     13  C   UNL     1       6.232  -4.436  23.327  0.00  0.00    +0.000 C 
ATOM     14  C   UNL     1       5.694  -3.849  24.538  0.00  0.00    +0.000 C 
ATOM     15  S   UNL     1       7.004  -3.008  25.133  0.00  0.00    +0.000 S 
ENDBRANCH   9  11
BRANCH   1  17
ATOM     16 CL   UNL     1       6.183   2.567  23.488  0.00  0.00    +0.000 Cl
ATOM     17  C   UNL     1       6.668   0.863  23.301  0.00  0.00    +0.000 C 
ENDBRANCH   1  17
TORSDOF 2
ENDMDL
MODEL 7
REMARK VINA RESULT:      -5.0      2.667      3.732
REMARK  Name = 
REMARK  2 active torsions:
REMARK  status: ('A' for Active; 'I' for Inactive)
REMARK    1  A    between atoms: C_2  and  C_3
REMARK    2  A    between atoms: C_11  and  C_13
REMARK                            x       y       z     vdW  Elec       q    Type
REMARK                         _______ _______ _______ _____ _____    ______ ____
ROOT
ATOM      1  C   UNL     1       7.074  -1.030  21.305  0.00  0.00    +0.000 C 
ATOM      2  O   UNL     1       6.064  -1.270  20.671  0.00  0.00    +0.000 OA
ATOM      3  N   UNL     1       7.407  -1.794  22.372  0.00  0.00    +0.000 N 
ATOM      4  C   UNL     1       6.577  -1.765  23.558  0.00  0.00    +0.000 C 
ATOM      5  C   UNL     1       7.406  -2.144  24.777  0.00  0.00    +0.000 C 
ATOM      6  N   UNL     1       8.761  -1.647  24.615  0.00  0.00    +0.000 N 
ATOM      7  C   UNL     1       9.554  -2.082  23.480  0.00  0.00    +0.000 C 
ATOM      8  C   UNL     1       8.642  -2.546  22.358  0.00  0.00    +0.000 C 
ATOM      9  C   UNL     1       9.136  -0.531  25.290  0.00  0.00    +0.000 C 
ATOM     10  O   UNL     1       9.239  -0.541  26.497  0.00  0.00    +0.000 OA
ENDROOT
BRANCH   9  11
ATOM     11  C   UNL     1       8.699   0.597  24.552  0.00  0.00    +0.000 C 
ATOM     12  C   UNL     1       7.648   1.519  25.125  0.00  0.00    +0.000 C 
ATOM     13  C   UNL     1       8.165   2.947  24.947  0.00  0.00    +0.000 C 
ATOM     14  C   UNL     1       9.359   3.088  24.137  0.00  0.00    +0.000 C 
ATOM     15  S   UNL     1       9.960   1.533  24.122  0.00  0.00    +0.000 S 
ENDBRANCH   9  11
BRANCH   1  17
ATOM     16 CL   UNL     1       7.797   0.216  19.019  0.00  0.00    +0.000 Cl
ATOM     17  C   UNL     1       8.211  -0.240  20.690  0.00  0.00    +0.000 C 
ENDBRANCH   1  17
TORSDOF 2
ENDMDL
MODEL 8
REMARK VINA RESULT:      -5.0      3.103      5.364
REMARK  Name = 
REMARK  2 active torsions:
REMARK  status: ('A' for Active; 'I' for Inactive)
REMARK    1  A    between atoms: C_2  and  C_3
REMARK    2  A    between atoms: C_11  and  C_13
REMARK                            x       y       z     vdW  Elec       q    Type
REMARK                         _______ _______ _______ _____ _____    ______ ____
ROOT
ATOM      1  C   UNL     1       8.574   0.369  24.528  0.00  0.00    +0.000 C 
ATOM      2  O   UNL     1       8.160   1.467  24.847  0.00  0.00    +0.000 OA
ATOM      3  N   UNL     1       8.103  -0.239  23.414  0.00  0.00    +0.000 N 
ATOM      4  C   UNL     1       6.723  -0.674  23.366  0.00  0.00    +0.000 C 
ATOM      5  C   UNL     1       6.578  -1.825  22.380  0.00  0.00    +0.000 C 
ATOM      6  N   UNL     1       7.777  -2.644  22.412  0.00  0.00    +0.000 N 
ATOM      7  C   UNL     1       9.062  -2.047  22.096  0.00  0.00    +0.000 C 
ATOM      8  C   UNL     1       9.008  -0.547  22.329  0.00  0.00    +0.000 C 
ATOM      9  C   UNL     1       7.748  -3.826  23.077  0.00  0.00    +0.000 C 
ATOM     10  O   UNL     1       7.078  -4.750  22.671  0.00  0.00    +0.000 OA
ENDROOT
BRANCH   9  11
ATOM     11  C   UNL     1       7.965  -3.562  24.452  0.00  0.00    +0.000 C 
ATOM     12  C   UNL     1       6.865  -3.818  25.458  0.00  0.00    +0.000 C 
ATOM     13  C   UNL     1       7.491  -4.602  26.611  0.00  0.00    +0.000 C 
ATOM     14  C   UNL     1       8.935  -4.725  26.578  0.00  0.00    +0.000 C 
ATOM     15  S   UNL     1       9.285  -4.347  24.993  0.00  0.00    +0.000 S 
ENDBRANCH   9  11
BRANCH   1  17
ATOM     16 CL   UNL     1      11.207   0.972  24.522  0.00  0.00    +0.000 Cl
ATOM     17  C   UNL     1       9.910  -0.138  25.031  0.00  0.00    +0.000 C 
ENDBRANCH   1  17
TORSDOF 2
ENDMDL
MODEL 9
REMARK VINA RESULT:      -4.9      2.623      3.393
REMARK  Name = 
REMARK  2 active torsions:
REMARK  status: ('A' for Active; 'I' for Inactive)
REMARK    1  A    between atoms: C_2  and  C_3
REMARK    2  A    between atoms: C_11  and  C_13
REMARK                            x       y       z     vdW  Elec       q    Type
REMARK                         _______ _______ _______ _____ _____    ______ ____
ROOT
ATOM      1  C   UNL     1       6.522  -1.380  25.770  0.00  0.00    +0.000 C 
ATOM      2  O   UNL     1       6.145  -1.587  26.908  0.00  0.00    +0.000 OA
ATOM      3  N   UNL     1       7.236  -2.319  25.107  0.00  0.00    +0.000 N 
ATOM      4  C   UNL     1       8.572  -2.651  25.557  0.00  0.00    +0.000 C 
ATOM      5  C   UNL     1       9.389  -3.195  24.394  0.00  0.00    +0.000 C 
ATOM      6  N   UNL     1       8.995  -2.521  23.168  0.00  0.00    +0.000 N 
ATOM      7  C   UNL     1       7.617  -2.598  22.720  0.00  0.00    +0.000 C 
ATOM      8  C   UNL     1       6.705  -2.901  23.895  0.00  0.00    +0.000 C 
ATOM      9  C   UNL     1       9.797  -1.548  22.667  0.00  0.00    +0.000 C 
ATOM     10  O   UNL     1      10.889  -1.816  22.218  0.00  0.00    +0.000 OA
ENDROOT
BRANCH   9  11
ATOM     11  C   UNL     1       9.506  -0.342  23.351  0.00  0.00    +0.000 C 
ATOM     12  C   UNL     1      10.493   0.222  24.348  0.00  0.00    +0.000 C 
ATOM     13  C   UNL     1      10.657   1.706  24.018  0.00  0.00    +0.000 C 
ATOM     14  C   UNL     1       9.736   2.238  23.033  0.00  0.00    +0.000 C 
ATOM     15  S   UNL     1       9.165   0.854  22.301  0.00  0.00    +0.000 S 
ENDBRANCH   9  11
BRANCH   1  17
ATOM     16 CL   UNL     1       6.665   1.223  25.059  0.00  0.00    +0.000 Cl
ATOM     17  C   UNL     1       5.838  -0.347  24.898  0.00  0.00    +0.000 C 
ENDBRANCH   1  17
TORSDOF 2
ENDMDL
