MODEL 1
REMARK VINA RESULT:      -5.4      0.000      0.000
REMARK  Name = 
REMARK  3 active torsions:
REMARK  status: ('A' for Active; 'I' for Inactive)
REMARK    1  A    between atoms: C_2  and  C_3
REMARK    2  A    between atoms: N_8  and  C_9
REMARK    3  A    between atoms: C_9  and  C_10
REMARK                            x       y       z     vdW  Elec       q    Type
REMARK                         _______ _______ _______ _____ _____    ______ ____
ROOT
ATOM      1  C   UNL     1      10.080  -1.117  23.219  0.00  0.00    +0.000 C 
ATOM      2  O   UNL     1      10.581  -1.749  22.318  0.00  0.00    +0.000 OA
ATOM      3  N   UNL     1       9.173  -1.659  24.057  0.00  0.00    +0.000 N 
ATOM      4  C   UNL     1       8.890  -3.093  23.965  0.00  0.00    +0.000 C 
ATOM      5  C   UNL     1       7.371  -3.246  23.811  0.00  0.00    +0.000 C 
ATOM      6  N   UNL     1       6.870  -2.114  23.082  0.00  0.00    +0.000 NA
ATOM      7  C   UNL     1       6.829  -0.992  23.980  0.00  0.00    +0.000 C 
ATOM      8  C   UNL     1       8.168  -0.803  24.665  0.00  0.00    +0.000 C 
ENDROOT
BRANCH   1  10
ATOM      9 CL   UNL     1      10.207   1.432  22.348  0.00  0.00    +0.000 Cl
ATOM     10  C   UNL     1      10.609   0.246  23.621  0.00  0.00    +0.000 C 
ENDBRANCH   1  10
BRANCH   6  11
ATOM     11  C   UNL     1       7.750  -1.802  22.012  0.00  0.00    +0.000 C 
BRANCH  11  12
ATOM     12  C   UNL     1       7.094  -0.974  20.948  0.00  0.00    +0.000 A 
ATOM     13  C   UNL     1       7.898  -0.002  20.243  0.00  0.00    +0.000 A 
ATOM     14  C   UNL     1       7.495   0.248  18.888  0.00  0.00    +0.000 A 
ATOM     15  S   UNL     1       5.904  -0.539  18.683  0.00  0.00    +0.000 S 
ATOM     16  C   UNL     1       5.951  -1.445  20.229  0.00  0.00    +0.000 A 
ENDBRANCH  11  12
ENDBRANCH   6  11
TORSDOF 3
ENDMDL
MODEL 2
REMARK VINA RESULT:      -5.3      2.110      2.535
REMARK  Name = 
REMARK  3 active torsions:
REMARK  status: ('A' for Active; 'I' for Inactive)
REMARK    1  A    between atoms: C_2  and  C_3
REMARK    2  A    between atoms: N_8  and  C_9
REMARK    3  A    between atoms: C_9  and  C_10
REMARK                            x       y       z     vdW  Elec       q    Type
REMARK                         _______ _______ _______ _____ _____    ______ ____
ROOT
ATOM      1  C   UNL     1       9.629   1.680  22.933  0.00  0.00    +0.000 C 
ATOM      2  O   UNL     1      10.400   1.994  22.056  0.00  0.00    +0.000 OA
ATOM      3  N   UNL     1       9.398   0.392  23.257  0.00  0.00    +0.000 N 
ATOM      4  C   UNL     1      10.207  -0.654  22.626  0.00  0.00    +0.000 C 
ATOM      5  C   UNL     1       9.235  -1.668  22.009  0.00  0.00    +0.000 C 
ATOM      6  N   UNL     1       8.058  -0.967  21.577  0.00  0.00    +0.000 NA
ATOM      7  C   UNL     1       7.266  -0.674  22.741  0.00  0.00    +0.000 C 
ATOM      8  C   UNL     1       8.102   0.018  23.800  0.00  0.00    +0.000 C 
ENDROOT
BRANCH   1  10
ATOM      9 CL   UNL     1       7.757   3.617  23.065  0.00  0.00    +0.000 Cl
ATOM     10  C   UNL     1       9.055   2.708  23.889  0.00  0.00    +0.000 C 
ENDBRANCH   1  10
BRANCH   6  11
ATOM     11  C   UNL     1       8.425   0.259  20.963  0.00  0.00    +0.000 C 
BRANCH  11  12
ATOM     12  C   UNL     1       7.408   0.732  19.968  0.00  0.00    +0.000 A 
ATOM     13  C   UNL     1       7.206  -0.052  18.770  0.00  0.00    +0.000 A 
ATOM     14  C   UNL     1       5.877   0.001  18.230  0.00  0.00    +0.000 A 
ATOM     15  S   UNL     1       5.030   1.311  19.102  0.00  0.00    +0.000 S 
ATOM     16  C   UNL     1       6.290   1.533  20.358  0.00  0.00    +0.000 A 
ENDBRANCH  11  12
ENDBRANCH   6  11
TORSDOF 3
ENDMDL
MODEL 3
REMARK VINA RESULT:      -5.1      3.502      4.257
REMARK  Name = 
REMARK  3 active torsions:
REMARK  status: ('A' for Active; 'I' for Inactive)
REMARK    1  A    between atoms: C_2  and  C_3
REMARK    2  A    between atoms: N_8  and  C_9
REMARK    3  A    between atoms: C_9  and  C_10
REMARK                            x       y       z     vdW  Elec       q    Type
REMARK                         _______ _______ _______ _____ _____    ______ ____
ROOT
ATOM      1  C   UNL     1       8.690  -4.212  25.056  0.00  0.00    +0.000 C 
ATOM      2  O   UNL     1       9.692  -4.669  24.557  0.00  0.00    +0.000 OA
ATOM      3  N   UNL     1       7.565  -4.002  24.343  0.00  0.00    +0.000 N 
ATOM      4  C   UNL     1       7.506  -4.471  22.956  0.00  0.00    +0.000 C 
ATOM      5  C   UNL     1       7.095  -3.274  22.091  0.00  0.00    +0.000 C 
ATOM      6  N   UNL     1       7.627  -2.078  22.683  0.00  0.00    +0.000 NA
ATOM      7  C   UNL     1       6.808  -1.745  23.817  0.00  0.00    +0.000 C 
ATOM      8  C   UNL     1       6.660  -2.937  24.742  0.00  0.00    +0.000 C 
ENDROOT
BRANCH   1  10
ATOM      9 CL   UNL     1       7.613  -5.452  27.195  0.00  0.00    +0.000 Cl
ATOM     10  C   UNL     1       8.548  -4.070  26.559  0.00  0.00    +0.000 C 
ENDBRANCH   1  10
BRANCH   6  11
ATOM     11  C   UNL     1       8.951  -2.313  23.138  0.00  0.00    +0.000 C 
BRANCH  11  12
ATOM     12  C   UNL     1       9.786  -1.068  23.152  0.00  0.00    +0.000 A 
ATOM     13  C   UNL     1       9.786  -0.231  21.973  0.00  0.00    +0.000 A 
ATOM     14  C   UNL     1       9.987   1.168  22.225  0.00  0.00    +0.000 A 
ATOM     15  S   UNL     1      10.487   1.305  23.935  0.00  0.00    +0.000 S 
ATOM     16  C   UNL     1      10.105  -0.391  24.370  0.00  0.00    +0.000 A 
ENDBRANCH  11  12
ENDBRANCH   6  11
TORSDOF 3
ENDMDL
MODEL 4
REMARK VINA RESULT:      -5.1      3.044      4.594
REMARK  Name = 
REMARK  3 active torsions:
REMARK  status: ('A' for Active; 'I' for Inactive)
REMARK    1  A    between atoms: C_2  and  C_3
REMARK    2  A    between atoms: N_8  and  C_9
REMARK    3  A    between atoms: C_9  and  C_10
REMARK                            x       y       z     vdW  Elec       q    Type
REMARK                         _______ _______ _______ _____ _____    ______ ____
ROOT
ATOM      1  C   UNL     1       7.514   0.610  20.271  0.00  0.00    +0.000 C 
ATOM      2  O   UNL     1       8.243  -0.105  19.624  0.00  0.00    +0.000 OA
ATOM      3  N   UNL     1       7.961   1.328  21.321  0.00  0.00    +0.000 N 
ATOM      4  C   UNL     1       9.399   1.356  21.601  0.00  0.00    +0.000 C 
ATOM      5  C   UNL     1       9.582   0.950  23.068  0.00  0.00    +0.000 C 
ATOM      6  N   UNL     1       8.549   0.013  23.415  0.00  0.00    +0.000 NA
ATOM      7  C   UNL     1       7.330   0.751  23.605  0.00  0.00    +0.000 C 
ATOM      8  C   UNL     1       7.049   1.640  22.409  0.00  0.00    +0.000 C 
ENDROOT
BRANCH   1  10
ATOM      9 CL   UNL     1       6.001   0.691  18.041  0.00  0.00    +0.000 Cl
ATOM     10  C   UNL     1       6.108   0.937  19.806  0.00  0.00    +0.000 C 
ENDBRANCH   1  10
BRANCH   6  11
ATOM     11  C   UNL     1       8.358  -0.908  22.353  0.00  0.00    +0.000 C 
BRANCH  11  12
ATOM     12  C   UNL     1       8.573  -2.330  22.778  0.00  0.00    +0.000 A 
ATOM     13  C   UNL     1       9.564  -2.598  23.796  0.00  0.00    +0.000 A 
ATOM     14  C   UNL     1       9.288  -3.739  24.623  0.00  0.00    +0.000 A 
ATOM     15  S   UNL     1       7.930  -4.606  23.849  0.00  0.00    +0.000 S 
ATOM     16  C   UNL     1       7.537  -3.310  22.675  0.00  0.00    +0.000 A 
ENDBRANCH  11  12
ENDBRANCH   6  11
TORSDOF 3
ENDMDL
MODEL 5
REMARK VINA RESULT:      -5.1      2.928      3.936
REMARK  Name = 
REMARK  3 active torsions:
REMARK  status: ('A' for Active; 'I' for Inactive)
REMARK    1  A    between atoms: C_2  and  C_3
REMARK    2  A    between atoms: N_8  and  C_9
REMARK    3  A    between atoms: C_9  and  C_10
REMARK                            x       y       z     vdW  Elec       q    Type
REMARK                         _______ _______ _______ _____ _____    ______ ____
ROOT
ATOM      1  C   UNL     1       7.783  -5.057  24.467  0.00  0.00    +0.000 C 
ATOM      2  O   UNL     1       8.931  -5.063  24.086  0.00  0.00    +0.000 OA
ATOM      3  N   UNL     1       6.756  -5.369  23.652  0.00  0.00    +0.000 N 
ATOM      4  C   UNL     1       7.045  -5.866  22.304  0.00  0.00    +0.000 C 
ATOM      5  C   UNL     1       6.264  -4.986  21.320  0.00  0.00    +0.000 C 
ATOM      6  N   UNL     1       6.182  -3.658  21.861  0.00  0.00    +0.000 NA
ATOM      7  C   UNL     1       5.184  -3.664  22.896  0.00  0.00    +0.000 C 
ATOM      8  C   UNL     1       5.452  -4.774  23.894  0.00  0.00    +0.000 C 
ENDROOT
BRANCH   1  10
ATOM      9 CL   UNL     1       7.768  -3.270  26.487  0.00  0.00    +0.000 Cl
ATOM     10  C   UNL     1       7.438  -4.937  25.939  0.00  0.00    +0.000 C 
ENDBRANCH   1  10
BRANCH   6  11
ATOM     11  C   UNL     1       7.427  -3.294  22.437  0.00  0.00    +0.000 C 
BRANCH  11  12
ATOM     12  C   UNL     1       7.789  -1.864  22.172  0.00  0.00    +0.000 A 
ATOM     13  C   UNL     1       9.153  -1.448  22.409  0.00  0.00    +0.000 A 
ATOM     14  C   UNL     1       9.617  -0.384  21.563  0.00  0.00    +0.000 A 
ATOM     15  S   UNL     1       8.175   0.252  20.719  0.00  0.00    +0.000 S 
ATOM     16  C   UNL     1       7.076  -1.073  21.219  0.00  0.00    +0.000 A 
ENDBRANCH  11  12
ENDBRANCH   6  11
TORSDOF 3
ENDMDL
MODEL 6
REMARK VINA RESULT:      -4.9      2.663      3.542
REMARK  Name = 
REMARK  3 active torsions:
REMARK  status: ('A' for Active; 'I' for Inactive)
REMARK    1  A    between atoms: C_2  and  C_3
REMARK    2  A    between atoms: N_8  and  C_9
REMARK    3  A    between atoms: C_9  and  C_10
REMARK                            x       y       z     vdW  Elec       q    Type
REMARK                         _______ _______ _______ _____ _____    ______ ____
ROOT
ATOM      1  C   UNL     1       7.743   0.389  24.345  0.00  0.00    +0.000 C 
ATOM      2  O   UNL     1       6.814   1.115  24.075  0.00  0.00    +0.000 OA
ATOM      3  N   UNL     1       9.006   0.668  23.963  0.00  0.00    +0.000 N 
ATOM      4  C   UNL     1       9.285   1.957  23.324  0.00  0.00    +0.000 C 
ATOM      5  C   UNL     1      10.004   1.660  22.002  0.00  0.00    +0.000 C 
ATOM      6  N   UNL     1       9.512   0.413  21.485  0.00  0.00    +0.000 NA
ATOM      7  C   UNL     1      10.121  -0.648  22.239  0.00  0.00    +0.000 C 
ATOM      8  C   UNL     1       9.934  -0.426  23.727  0.00  0.00    +0.000 C 
ENDROOT
BRANCH   1  10
ATOM      9 CL   UNL     1       6.813  -2.137  24.520  0.00  0.00    +0.000 Cl
ATOM     10  C   UNL     1       7.596  -0.753  25.333  0.00  0.00    +0.000 C 
ENDBRANCH   1  10
BRANCH   6  11
ATOM     11  C   UNL     1       8.106   0.341  21.658  0.00  0.00    +0.000 C 
BRANCH  11  12
ATOM     12  C   UNL     1       7.351   0.797  20.446  0.00  0.00    +0.000 A 
ATOM     13  C   UNL     1       7.467   0.018  19.234  0.00  0.00    +0.000 A 
ATOM     14  C   UNL     1       6.309   0.042  18.386  0.00  0.00    +0.000 A 
ATOM     15  S   UNL     1       5.241   1.324  19.028  0.00  0.00    +0.000 S 
ATOM     16  C   UNL     1       6.150   1.566  20.554  0.00  0.00    +0.000 A 
ENDBRANCH  11  12
ENDBRANCH   6  11
TORSDOF 3
ENDMDL
MODEL 7
REMARK VINA RESULT:      -4.9      2.689      3.992
REMARK  Name = 
REMARK  3 active torsions:
REMARK  status: ('A' for Active; 'I' for Inactive)
REMARK    1  A    between atoms: C_2  and  C_3
REMARK    2  A    between atoms: N_8  and  C_9
REMARK    3  A    between atoms: C_9  and  C_10
REMARK                            x       y       z     vdW  Elec       q    Type
REMARK                         _______ _______ _______ _____ _____    ______ ____
ROOT
ATOM      1  C   UNL     1       8.954   0.542  21.873  0.00  0.00    +0.000 C 
ATOM      2  O   UNL     1       9.802  -0.083  21.280  0.00  0.00    +0.000 OA
ATOM      3  N   UNL     1       9.164   1.043  23.107  0.00  0.00    +0.000 N 
ATOM      4  C   UNL     1      10.505   0.952  23.691  0.00  0.00    +0.000 C 
ATOM      5  C   UNL     1      10.355   0.287  25.065  0.00  0.00    +0.000 C 
ATOM      6  N   UNL     1       9.263  -0.644  25.005  0.00  0.00    +0.000 NA
ATOM      7  C   UNL     1       8.038   0.107  25.057  0.00  0.00    +0.000 C 
ATOM      8  C   UNL     1       8.036   1.203  24.010  0.00  0.00    +0.000 C 
ENDROOT
BRANCH   1  10
ATOM      9 CL   UNL     1       7.612   0.301  19.546  0.00  0.00    +0.000 Cl
ATOM     10  C   UNL     1       7.689   1.013  21.182  0.00  0.00    +0.000 C 
ENDBRANCH   1  10
BRANCH   6  11
ATOM     11  C   UNL     1       9.303  -1.356  23.778  0.00  0.00    +0.000 C 
BRANCH  11  12
ATOM     12  C   UNL     1       8.398  -2.552  23.775  0.00  0.00    +0.000 A 
ATOM     13  C   UNL     1       7.546  -2.762  22.627  0.00  0.00    +0.000 A 
ATOM     14  C   UNL     1       7.248  -4.137  22.338  0.00  0.00    +0.000 A 
ATOM     15  S   UNL     1       7.814  -5.081  23.747  0.00  0.00    +0.000 S 
ATOM     16  C   UNL     1       8.713  -3.734  24.516  0.00  0.00    +0.000 A 
ENDBRANCH  11  12
ENDBRANCH   6  11
TORSDOF 3
ENDMDL
MODEL 8
REMARK VINA RESULT:      -4.9      3.668      4.764
REMARK  Name = 
REMARK  3 active torsions:
REMARK  status: ('A' for Active; 'I' for Inactive)
REMARK    1  A    between atoms: C_2  and  C_3
REMARK    2  A    between atoms: N_8  and  C_9
REMARK    3  A    between atoms: C_9  and  C_10
REMARK                            x       y       z     vdW  Elec       q    Type
REMARK                         _______ _______ _______ _____ _____    ______ ____
ROOT
ATOM      1  C   UNL     1       7.077  -4.552  22.960  0.00  0.00    +0.000 C 
ATOM      2  O   UNL     1       6.565  -3.570  22.473  0.00  0.00    +0.000 OA
ATOM      3  N   UNL     1       7.297  -4.662  24.286  0.00  0.00    +0.000 N 
ATOM      4  C   UNL     1       6.776  -3.625  25.181  0.00  0.00    +0.000 C 
ATOM      5  C   UNL     1       7.952  -3.127  26.030  0.00  0.00    +0.000 C 
ATOM      6  N   UNL     1       9.151  -3.209  25.242  0.00  0.00    +0.000 NA
ATOM      7  C   UNL     1       9.558  -4.587  25.198  0.00  0.00    +0.000 C 
ATOM      8  C   UNL     1       8.409  -5.472  24.755  0.00  0.00    +0.000 C 
ENDROOT
BRANCH   1  10
ATOM      9 CL   UNL     1       6.161  -5.824  20.766  0.00  0.00    +0.000 Cl
ATOM     10  C   UNL     1       7.283  -5.820  22.155  0.00  0.00    +0.000 C 
ENDBRANCH   1  10
BRANCH   6  11
ATOM     11  C   UNL     1       8.887  -2.774  23.917  0.00  0.00    +0.000 C 
BRANCH  11  12
ATOM     12  C   UNL     1       9.692  -1.568  23.535  0.00  0.00    +0.000 A 
ATOM     13  C   UNL     1       9.715  -1.173  22.145  0.00  0.00    +0.000 A 
ATOM     14  C   UNL     1       9.874   0.236  21.919  0.00  0.00    +0.000 A 
ATOM     15  S   UNL     1      10.310   0.953  23.497  0.00  0.00    +0.000 S 
ATOM     16  C   UNL     1       9.952  -0.513  24.464  0.00  0.00    +0.000 A 
ENDBRANCH  11  12
ENDBRANCH   6  11
TORSDOF 3
ENDMDL
MODEL 9
REMARK VINA RESULT:      -4.8      3.223      4.409
REMARK  Name = 
REMARK  3 active torsions:
REMARK  status: ('A' for Active; 'I' for Inactive)
REMARK    1  A    between atoms: C_2  and  C_3
REMARK    2  A    between atoms: N_8  and  C_9
REMARK    3  A    between atoms: C_9  and  C_10
REMARK                            x       y       z     vdW  Elec       q    Type
REMARK                         _______ _______ _______ _____ _____    ______ ____
ROOT
ATOM      1  C   UNL     1       7.025  -3.058  26.425  0.00  0.00    +0.000 C 
ATOM      2  O   UNL     1       7.672  -2.108  26.801  0.00  0.00    +0.000 OA
ATOM      3  N   UNL     1       7.581  -4.269  26.222  0.00  0.00    +0.000 N 
ATOM      4  C   UNL     1       8.980  -4.480  26.603  0.00  0.00    +0.000 C 
ATOM      5  C   UNL     1       9.704  -5.041  25.372  0.00  0.00    +0.000 C 
ATOM      6  N   UNL     1       9.097  -4.486  24.194  0.00  0.00    +0.000 NA
ATOM      7  C   UNL     1       7.853  -5.172  23.973  0.00  0.00    +0.000 C 
ATOM      8  C   UNL     1       7.003  -5.159  25.229  0.00  0.00    +0.000 C 
ENDROOT
BRANCH   1  10
ATOM      9 CL   UNL     1       4.977  -2.217  24.884  0.00  0.00    +0.000 Cl
ATOM     10  C   UNL     1       5.509  -3.019  26.388  0.00  0.00    +0.000 C 
ENDBRANCH   1  10
BRANCH   6  11
ATOM     11  C   UNL     1       8.823  -3.108  24.396  0.00  0.00    +0.000 C 
BRANCH  11  12
ATOM     12  C   UNL     1       8.911  -2.311  23.129  0.00  0.00    +0.000 A 
ATOM     13  C   UNL     1       7.687  -1.791  22.561  0.00  0.00    +0.000 A 
ATOM     14  C   UNL     1       7.832  -0.562  21.834  0.00  0.00    +0.000 A 
ATOM     15  S   UNL     1       9.589  -0.296  21.640  0.00  0.00    +0.000 S 
ATOM     16  C   UNL     1      10.092  -1.587  22.777  0.00  0.00    +0.000 A 
ENDBRANCH  11  12
ENDBRANCH   6  11
TORSDOF 3
ENDMDL
