MODEL 1
REMARK VINA RESULT:      -7.0      0.000      0.000
REMARK  Name = 
REMARK  2 active torsions:
REMARK  status: ('A' for Active; 'I' for Inactive)
REMARK    1  A    between atoms: C_2  and  C_3
REMARK    2  A    between atoms: C_7  and  C_8
REMARK                            x       y       z     vdW  Elec       q    Type
REMARK                         _______ _______ _______ _____ _____    ______ ____
ROOT
ATOM      1  C   UNL     1       7.109  -3.624  22.721  0.00  0.00    +0.000 C 
ATOM      2  O   UNL     1       7.336  -4.544  21.985  0.00  0.00    +0.000 OA
ATOM      3  N   UNL     1       7.719  -2.391  22.492  0.00  0.00    +0.000 N 
ATOM      4  C   UNL     1       7.024  -1.492  21.683  0.00  0.00    +0.000 C 
ATOM      5  C   UNL     1       7.272  -0.011  21.935  0.00  0.00    +0.000 C 
ATOM      6  C   UNL     1       8.106   0.190  22.983  0.00  0.00    +0.000 A 
ATOM      7  C   UNL     1       8.022   1.364  24.081  0.00  0.00    +0.000 A 
ATOM      8  C   UNL     1       9.436   1.551  24.639  0.00  0.00    +0.000 A 
ATOM      9  C   UNL     1      10.657   0.721  24.760  0.00  0.00    +0.000 A 
ATOM     10  C   UNL     1      10.693  -0.395  23.619  0.00  0.00    +0.000 A 
ATOM     11  C   UNL     1       9.273  -0.713  23.274  0.00  0.00    +0.000 A 
ATOM     12  C   UNL     1       8.972  -2.189  23.163  0.00  0.00    +0.000 C 
ENDROOT
BRANCH   5  13
ATOM     13  C   UNL     1       7.179   0.726  20.745  0.00  0.00    +0.000 A 
ATOM     14  C   UNL     1       7.844   0.015  19.422  0.00  0.00    +0.000 A 
ATOM     15  C   UNL     1       6.870   0.146  18.279  0.00  0.00    +0.000 A 
ATOM     16  C   UNL     1       5.628   0.878  17.981  0.00  0.00    +0.000 A 
ATOM     17  C   UNL     1       4.987   1.512  19.289  0.00  0.00    +0.000 A 
ATOM     18  C   UNL     1       6.018   1.536  20.356  0.00  0.00    +0.000 A 
ENDBRANCH   5  13
BRANCH   1  20
ATOM     19 CL   UNL     1       4.477  -4.183  23.010  0.00  0.00    +0.000 Cl
ATOM     20  C   UNL     1       5.999  -3.587  23.723  0.00  0.00    +0.000 C 
ENDBRANCH   1  20
TORSDOF 2
ENDMDL
MODEL 2
REMARK VINA RESULT:      -6.7      2.567      4.194
REMARK  Name = 
REMARK  2 active torsions:
REMARK  status: ('A' for Active; 'I' for Inactive)
REMARK    1  A    between atoms: C_2  and  C_3
REMARK    2  A    between atoms: C_7  and  C_8
REMARK                            x       y       z     vdW  Elec       q    Type
REMARK                         _______ _______ _______ _____ _____    ______ ____
ROOT
ATOM      1  C   UNL     1       7.047  -0.013  19.157  0.00  0.00    +0.000 C 
ATOM      2  O   UNL     1       7.442   0.612  18.212  0.00  0.00    +0.000 OA
ATOM      3  N   UNL     1       7.589   0.230  20.419  0.00  0.00    +0.000 N 
ATOM      4  C   UNL     1       6.948   1.193  21.199  0.00  0.00    +0.000 C 
ATOM      5  C   UNL     1       7.047   1.028  22.709  0.00  0.00    +0.000 C 
ATOM      6  C   UNL     1       7.709  -0.103  23.051  0.00  0.00    +0.000 A 
ATOM      7  C   UNL     1       7.384  -1.084  24.286  0.00  0.00    +0.000 A 
ATOM      8  C   UNL     1       8.690  -1.809  24.630  0.00  0.00    +0.000 A 
ATOM      9  C   UNL     1       9.941  -2.157  23.917  0.00  0.00    +0.000 A 
ATOM     10  C   UNL     1      10.218  -1.123  22.733  0.00  0.00    +0.000 A 
ATOM     11  C   UNL     1       8.888  -0.618  22.272  0.00  0.00    +0.000 A 
ATOM     12  C   UNL     1       8.718  -0.584  20.772  0.00  0.00    +0.000 C 
ENDROOT
BRANCH   5  13
ATOM     13  C   UNL     1       7.065   2.273  23.352  0.00  0.00    +0.000 A 
ATOM     14  C   UNL     1       8.296   2.500  24.416  0.00  0.00    +0.000 A 
ATOM     15  C   UNL     1       8.889   3.863  24.165  0.00  0.00    +0.000 A 
ATOM     16  C   UNL     1       8.555   5.075  23.398  0.00  0.00    +0.000 A 
ATOM     17  C   UNL     1       7.394   4.807  22.347  0.00  0.00    +0.000 A 
ATOM     18  C   UNL     1       6.706   3.546  22.714  0.00  0.00    +0.000 A 
ENDBRANCH   5  13
BRANCH   1  20
ATOM     19 CL   UNL     1       5.856  -2.043  20.494  0.00  0.00    +0.000 Cl
ATOM     20  C   UNL     1       5.809  -0.851  19.168  0.00  0.00    +0.000 C 
ENDBRANCH   1  20
TORSDOF 2
ENDMDL
MODEL 3
REMARK VINA RESULT:      -6.6      1.910      2.467
REMARK  Name = 
REMARK  2 active torsions:
REMARK  status: ('A' for Active; 'I' for Inactive)
REMARK    1  A    between atoms: C_2  and  C_3
REMARK    2  A    between atoms: C_7  and  C_8
REMARK                            x       y       z     vdW  Elec       q    Type
REMARK                         _______ _______ _______ _____ _____    ______ ____
ROOT
ATOM      1  C   UNL     1       9.408  -2.092  23.710  0.00  0.00    +0.000 C 
ATOM      2  O   UNL     1      10.434  -2.573  23.313  0.00  0.00    +0.000 OA
ATOM      3  N   UNL     1       9.057  -0.800  23.323  0.00  0.00    +0.000 N 
ATOM      4  C   UNL     1       8.285  -0.682  22.167  0.00  0.00    +0.000 C 
ATOM      5  C   UNL     1       7.362   0.525  22.080  0.00  0.00    +0.000 C 
ATOM      6  C   UNL     1       7.400   1.273  23.209  0.00  0.00    +0.000 A 
ATOM      7  C   UNL     1       6.168   2.034  23.913  0.00  0.00    +0.000 A 
ATOM      8  C   UNL     1       6.767   3.186  24.725  0.00  0.00    +0.000 A 
ATOM      9  C   UNL     1       8.077   3.491  25.346  0.00  0.00    +0.000 A 
ATOM     10  C   UNL     1       9.253   2.734  24.575  0.00  0.00    +0.000 A 
ATOM     11  C   UNL     1       8.664   1.488  23.994  0.00  0.00    +0.000 A 
ATOM     12  C   UNL     1       9.500   0.248  24.199  0.00  0.00    +0.000 C 
ENDROOT
BRANCH   5  13
ATOM     13  C   UNL     1       7.225   0.960  20.754  0.00  0.00    +0.000 A 
ATOM     14  C   UNL     1       7.891  -0.021  19.618  0.00  0.00    +0.000 A 
ATOM     15  C   UNL     1       6.895  -0.189  18.499  0.00  0.00    +0.000 A 
ATOM     16  C   UNL     1       5.624   0.419  18.067  0.00  0.00    +0.000 A 
ATOM     17  C   UNL     1       4.985   1.323  19.207  0.00  0.00    +0.000 A 
ATOM     18  C   UNL     1       6.032   1.624  20.214  0.00  0.00    +0.000 A 
ENDBRANCH   5  13
BRANCH   1  20
ATOM     19 CL   UNL     1       8.386  -2.686  26.145  0.00  0.00    +0.000 Cl
ATOM     20  C   UNL     1       8.308  -2.859  24.372  0.00  0.00    +0.000 C 
ENDBRANCH   1  20
TORSDOF 2
ENDMDL
MODEL 4
REMARK VINA RESULT:      -6.5      2.197      2.695
REMARK  Name = 
REMARK  2 active torsions:
REMARK  status: ('A' for Active; 'I' for Inactive)
REMARK    1  A    between atoms: C_2  and  C_3
REMARK    2  A    between atoms: C_7  and  C_8
REMARK                            x       y       z     vdW  Elec       q    Type
REMARK                         _______ _______ _______ _____ _____    ______ ____
ROOT
ATOM      1  C   UNL     1       8.287  -2.065  26.007  0.00  0.00    +0.000 C 
ATOM      2  O   UNL     1       8.919  -3.063  26.215  0.00  0.00    +0.000 OA
ATOM      3  N   UNL     1       8.566  -1.294  24.880  0.00  0.00    +0.000 N 
ATOM      4  C   UNL     1       7.850  -1.599  23.722  0.00  0.00    +0.000 C 
ATOM      5  C   UNL     1       7.614  -0.457  22.742  0.00  0.00    +0.000 C 
ATOM      6  C   UNL     1       8.102   0.717  23.208  0.00  0.00    +0.000 A 
ATOM      7  C   UNL     1       7.450   2.178  23.031  0.00  0.00    +0.000 A 
ATOM      8  C   UNL     1       8.594   3.191  23.150  0.00  0.00    +0.000 A 
ATOM      9  C   UNL     1       9.937   3.218  23.774  0.00  0.00    +0.000 A 
ATOM     10  C   UNL     1      10.536   1.743  23.883  0.00  0.00    +0.000 A 
ATOM     11  C   UNL     1       9.376   0.807  24.001  0.00  0.00    +0.000 A 
ATOM     12  C   UNL     1       9.529  -0.247  25.072  0.00  0.00    +0.000 C 
ENDROOT
BRANCH   5  13
ATOM     13  C   UNL     1       7.590  -0.925  21.420  0.00  0.00    +0.000 A 
ATOM     14  C   UNL     1       6.305  -1.872  21.031  0.00  0.00    +0.000 A 
ATOM     15  C   UNL     1       5.762  -1.404  19.705  0.00  0.00    +0.000 A 
ATOM     16  C   UNL     1       6.170  -0.503  18.613  0.00  0.00    +0.000 A 
ATOM     17  C   UNL     1       7.384   0.430  19.041  0.00  0.00    +0.000 A 
ATOM     18  C   UNL     1       8.017  -0.145  20.252  0.00  0.00    +0.000 A 
ENDBRANCH   5  13
BRANCH   1  20
ATOM     19 CL   UNL     1       5.839  -3.041  26.627  0.00  0.00    +0.000 Cl
ATOM     20  C   UNL     1       7.014  -1.701  26.704  0.00  0.00    +0.000 C 
ENDBRANCH   1  20
TORSDOF 2
ENDMDL
MODEL 5
REMARK VINA RESULT:      -6.4      2.731      4.008
REMARK  Name = 
REMARK  2 active torsions:
REMARK  status: ('A' for Active; 'I' for Inactive)
REMARK    1  A    between atoms: C_2  and  C_3
REMARK    2  A    between atoms: C_7  and  C_8
REMARK                            x       y       z     vdW  Elec       q    Type
REMARK                         _______ _______ _______ _____ _____    ______ ____
ROOT
ATOM      1  C   UNL     1       8.242  -4.873  24.372  0.00  0.00    +0.000 C 
ATOM      2  O   UNL     1       9.137  -5.619  24.662  0.00  0.00    +0.000 OA
ATOM      3  N   UNL     1       8.388  -3.504  24.591  0.00  0.00    +0.000 N 
ATOM      4  C   UNL     1       8.918  -2.756  23.539  0.00  0.00    +0.000 C 
ATOM      5  C   UNL     1       8.494  -1.296  23.455  0.00  0.00    +0.000 C 
ATOM      6  C   UNL     1       7.591  -0.977  24.413  0.00  0.00    +0.000 A 
ATOM      7  C   UNL     1       6.332   0.016  24.268  0.00  0.00    +0.000 A 
ATOM      8  C   UNL     1       6.010   0.530  25.675  0.00  0.00    +0.000 A 
ATOM      9  C   UNL     1       6.232   0.061  27.063  0.00  0.00    +0.000 A 
ATOM     10  C   UNL     1       7.516  -0.886  27.137  0.00  0.00    +0.000 A 
ATOM     11  C   UNL     1       7.649  -1.547  25.802  0.00  0.00    +0.000 A 
ATOM     12  C   UNL     1       7.926  -3.031  25.865  0.00  0.00    +0.000 C 
ENDROOT
BRANCH   5  13
ATOM     13  C   UNL     1       9.524  -0.501  22.932  0.00  0.00    +0.000 A 
ATOM     14  C   UNL     1       9.151   0.325  21.562  0.00  0.00    +0.000 A 
ATOM     15  C   UNL     1       9.640   1.742  21.721  0.00  0.00    +0.000 A 
ATOM     16  C   UNL     1      10.502   2.504  22.642  0.00  0.00    +0.000 A 
ATOM     17  C   UNL     1      10.803   1.693  23.974  0.00  0.00    +0.000 A 
ATOM     18  C   UNL     1      10.479   0.265  23.742  0.00  0.00    +0.000 A 
ENDBRANCH   5  13
BRANCH   1  20
ATOM     19 CL   UNL     1       7.595  -5.939  21.969  0.00  0.00    +0.000 Cl
ATOM     20  C   UNL     1       7.067  -5.241  23.524  0.00  0.00    +0.000 C 
ENDBRANCH   1  20
TORSDOF 2
ENDMDL
MODEL 6
REMARK VINA RESULT:      -6.2      2.654      4.953
REMARK  Name = 
REMARK  2 active torsions:
REMARK  status: ('A' for Active; 'I' for Inactive)
REMARK    1  A    between atoms: C_2  and  C_3
REMARK    2  A    between atoms: C_7  and  C_8
REMARK                            x       y       z     vdW  Elec       q    Type
REMARK                         _______ _______ _______ _____ _____    ______ ____
ROOT
ATOM      1  C   UNL     1       6.282   0.663  19.815  0.00  0.00    +0.000 C 
ATOM      2  O   UNL     1       5.136   1.012  19.756  0.00  0.00    +0.000 OA
ATOM      3  N   UNL     1       6.788   0.156  21.011  0.00  0.00    +0.000 N 
ATOM      4  C   UNL     1       6.698  -1.224  21.192  0.00  0.00    +0.000 C 
ATOM      5  C   UNL     1       7.758  -1.870  22.074  0.00  0.00    +0.000 C 
ATOM      6  C   UNL     1       8.680  -0.972  22.496  0.00  0.00    +0.000 A 
ATOM      7  C   UNL     1      10.260  -1.216  22.680  0.00  0.00    +0.000 A 
ATOM      8  C   UNL     1      10.748  -0.195  23.713  0.00  0.00    +0.000 A 
ATOM      9  C   UNL     1      10.296   1.127  24.208  0.00  0.00    +0.000 A 
ATOM     10  C   UNL     1       8.717   1.283  24.029  0.00  0.00    +0.000 A 
ATOM     11  C   UNL     1       8.325   0.445  22.854  0.00  0.00    +0.000 A 
ATOM     12  C   UNL     1       7.385   1.124  21.887  0.00  0.00    +0.000 C 
ENDROOT
BRANCH   5  13
ATOM     13  C   UNL     1       7.233  -2.969  22.770  0.00  0.00    +0.000 A 
ATOM     14  C   UNL     1       5.685  -2.799  23.291  0.00  0.00    +0.000 A 
ATOM     15  C   UNL     1       4.935  -4.063  22.954  0.00  0.00    +0.000 A 
ATOM     16  C   UNL     1       5.244  -5.426  22.489  0.00  0.00    +0.000 A 
ATOM     17  C   UNL     1       6.734  -5.541  21.950  0.00  0.00    +0.000 A 
ATOM     18  C   UNL     1       7.505  -4.373  22.439  0.00  0.00    +0.000 A 
ENDBRANCH   5  13
BRANCH   1  20
ATOM     19 CL   UNL     1       6.576   1.365  17.217  0.00  0.00    +0.000 Cl
ATOM     20  C   UNL     1       7.171   0.453  18.630  0.00  0.00    +0.000 C 
ENDBRANCH   1  20
TORSDOF 2
ENDMDL
MODEL 7
REMARK VINA RESULT:      -6.2      2.741      5.096
REMARK  Name = 
REMARK  2 active torsions:
REMARK  status: ('A' for Active; 'I' for Inactive)
REMARK    1  A    between atoms: C_2  and  C_3
REMARK    2  A    between atoms: C_7  and  C_8
REMARK                            x       y       z     vdW  Elec       q    Type
REMARK                         _______ _______ _______ _____ _____    ______ ____
ROOT
ATOM      1  C   UNL     1       7.732  -2.507  26.417  0.00  0.00    +0.000 C 
ATOM      2  O   UNL     1       7.434  -1.530  27.047  0.00  0.00    +0.000 OA
ATOM      3  N   UNL     1       7.258  -2.658  25.115  0.00  0.00    +0.000 N 
ATOM      4  C   UNL     1       8.065  -2.153  24.095  0.00  0.00    +0.000 C 
ATOM      5  C   UNL     1       7.963  -2.837  22.738  0.00  0.00    +0.000 C 
ATOM      6  C   UNL     1       7.124  -3.900  22.771  0.00  0.00    +0.000 A 
ATOM      7  C   UNL     1       7.297  -5.299  21.993  0.00  0.00    +0.000 A 
ATOM      8  C   UNL     1       5.893  -5.891  21.830  0.00  0.00    +0.000 A 
ATOM      9  C   UNL     1       4.590  -5.762  22.524  0.00  0.00    +0.000 A 
ATOM     10  C   UNL     1       4.474  -4.340  23.240  0.00  0.00    +0.000 A 
ATOM     11  C   UNL     1       5.863  -3.911  23.590  0.00  0.00    +0.000 A 
ATOM     12  C   UNL     1       6.014  -3.363  24.989  0.00  0.00    +0.000 C 
ENDROOT
BRANCH   5  13
ATOM     13  C   UNL     1       8.167  -1.922  21.696  0.00  0.00    +0.000 A 
ATOM     14  C   UNL     1       6.811  -1.189  21.126  0.00  0.00    +0.000 A 
ATOM     15  C   UNL     1       7.096   0.285  20.993  0.00  0.00    +0.000 A 
ATOM     16  C   UNL     1       8.264   1.181  21.037  0.00  0.00    +0.000 A 
ATOM     17  C   UNL     1       9.543   0.453  21.636  0.00  0.00    +0.000 A 
ATOM     18  C   UNL     1       9.314  -1.012  21.598  0.00  0.00    +0.000 A 
ENDBRANCH   5  13
BRANCH   1  20
ATOM     19 CL   UNL     1       8.320  -5.149  26.448  0.00  0.00    +0.000 Cl
ATOM     20  C   UNL     1       8.811  -3.471  26.799  0.00  0.00    +0.000 C 
ENDBRANCH   1  20
TORSDOF 2
ENDMDL
MODEL 8
REMARK VINA RESULT:      -6.1      3.168      5.224
REMARK  Name = 
REMARK  2 active torsions:
REMARK  status: ('A' for Active; 'I' for Inactive)
REMARK    1  A    between atoms: C_2  and  C_3
REMARK    2  A    between atoms: C_7  and  C_8
REMARK                            x       y       z     vdW  Elec       q    Type
REMARK                         _______ _______ _______ _____ _____    ______ ____
ROOT
ATOM      1  C   UNL     1       5.149  -1.305  25.899  0.00  0.00    +0.000 C 
ATOM      2  O   UNL     1       4.570  -0.260  25.782  0.00  0.00    +0.000 OA
ATOM      3  N   UNL     1       5.930  -1.782  24.848  0.00  0.00    +0.000 N 
ATOM      4  C   UNL     1       7.274  -1.409  24.850  0.00  0.00    +0.000 C 
ATOM      5  C   UNL     1       8.253  -2.370  24.188  0.00  0.00    +0.000 C 
ATOM      6  C   UNL     1       7.638  -3.495  23.751  0.00  0.00    +0.000 A 
ATOM      7  C   UNL     1       8.222  -4.995  23.779  0.00  0.00    +0.000 A 
ATOM      8  C   UNL     1       7.498  -5.773  22.675  0.00  0.00    +0.000 A 
ATOM      9  C   UNL     1       6.207  -5.658  21.956  0.00  0.00    +0.000 A 
ATOM     10  C   UNL     1       5.708  -4.142  21.936  0.00  0.00    +0.000 A 
ATOM     11  C   UNL     1       6.254  -3.485  23.164  0.00  0.00    +0.000 A 
ATOM     12  C   UNL     1       5.254  -2.641  23.918  0.00  0.00    +0.000 C 
ENDROOT
BRANCH   5  13
ATOM     13  C   UNL     1       9.318  -1.677  23.596  0.00  0.00    +0.000 A 
ATOM     14  C   UNL     1       9.268  -1.572  21.958  0.00  0.00    +0.000 A 
ATOM     15  C   UNL     1       9.578  -0.149  21.569  0.00  0.00    +0.000 A 
ATOM     16  C   UNL     1      10.088   1.073  22.212  0.00  0.00    +0.000 A 
ATOM     17  C   UNL     1      10.079   0.954  23.796  0.00  0.00    +0.000 A 
ATOM     18  C   UNL     1       9.948  -0.477  24.162  0.00  0.00    +0.000 A 
ENDBRANCH   5  13
BRANCH   1  20
ATOM     19 CL   UNL     1       5.588  -3.775  26.915  0.00  0.00    +0.000 Cl
ATOM     20  C   UNL     1       5.344  -2.030  27.193  0.00  0.00    +0.000 C 
ENDBRANCH   1  20
TORSDOF 2
ENDMDL
MODEL 9
REMARK VINA RESULT:      -6.1      3.218      5.479
REMARK  Name = 
REMARK  2 active torsions:
REMARK  status: ('A' for Active; 'I' for Inactive)
REMARK    1  A    between atoms: C_2  and  C_3
REMARK    2  A    between atoms: C_7  and  C_8
REMARK                            x       y       z     vdW  Elec       q    Type
REMARK                         _______ _______ _______ _____ _____    ______ ____
ROOT
ATOM      1  C   UNL     1       8.448  -0.290  21.273  0.00  0.00    +0.000 C 
ATOM      2  O   UNL     1       7.946  -0.174  20.190  0.00  0.00    +0.000 OA
ATOM      3  N   UNL     1       7.779  -0.996  22.272  0.00  0.00    +0.000 N 
ATOM      4  C   UNL     1       8.050  -2.362  22.359  0.00  0.00    +0.000 C 
ATOM      5  C   UNL     1       7.908  -3.002  23.733  0.00  0.00    +0.000 C 
ATOM      6  C   UNL     1       7.595  -2.090  24.685  0.00  0.00    +0.000 A 
ATOM      7  C   UNL     1       8.119  -2.055  26.207  0.00  0.00    +0.000 A 
ATOM      8  C   UNL     1       7.073  -1.284  27.017  0.00  0.00    +0.000 A 
ATOM      9  C   UNL     1       6.032  -0.269  26.731  0.00  0.00    +0.000 A 
ATOM     10  C   UNL     1       5.534  -0.387  25.219  0.00  0.00    +0.000 A 
ATOM     11  C   UNL     1       6.677  -0.928  24.422  0.00  0.00    +0.000 A 
ATOM     12  C   UNL     1       6.926  -0.209  23.117  0.00  0.00    +0.000 C 
ENDROOT
BRANCH   5  13
ATOM     13  C   UNL     1       7.476  -4.331  23.628  0.00  0.00    +0.000 A 
ATOM     14  C   UNL     1       6.232  -4.749  24.615  0.00  0.00    +0.000 A 
ATOM     15  C   UNL     1       5.225  -5.520  23.801  0.00  0.00    +0.000 A 
ATOM     16  C   UNL     1       5.147  -6.150  22.472  0.00  0.00    +0.000 A 
ATOM     17  C   UNL     1       6.339  -5.688  21.529  0.00  0.00    +0.000 A 
ATOM     18  C   UNL     1       7.401  -5.086  22.371  0.00  0.00    +0.000 A 
ENDBRANCH   5  13
BRANCH   1  20
ATOM     19 CL   UNL     1      10.091   1.750  21.958  0.00  0.00    +0.000 Cl
ATOM     20  C   UNL     1       9.878   0.018  21.587  0.00  0.00    +0.000 C 
ENDBRANCH   1  20
TORSDOF 2
ENDMDL
