MODEL 1
REMARK VINA RESULT:      -6.6      0.000      0.000
REMARK  Name = 
REMARK  2 active torsions:
REMARK  status: ('A' for Active; 'I' for Inactive)
REMARK    1  A    between atoms: C_7  and  C_8
REMARK    2  A    between atoms: C_8  and  N_9
REMARK                            x       y       z     vdW  Elec       q    Type
REMARK                         _______ _______ _______ _____ _____    ______ ____
ROOT
ATOM      1  N   UNL     1       9.801  -1.779  22.498  0.00  0.00    +0.000 NA
ATOM      2  C   UNL     1       9.764  -2.164  23.814  0.00  0.00    +0.000 A 
ATOM      3  N   UNL     1      10.085  -3.356  24.144  0.00  0.00    +0.000 NA
ATOM      4  C   UNL     1       9.140  -4.138  24.527  0.00  0.00    +0.000 A 
ATOM      5  C   UNL     1       9.367  -4.875  25.961  0.00  0.00    +0.000 A 
ATOM      6  C   UNL     1       8.076  -4.724  26.738  0.00  0.00    +0.000 A 
ATOM      7  C   UNL     1       6.859  -3.892  26.712  0.00  0.00    +0.000 A 
ATOM      8  C   UNL     1       6.682  -3.150  25.321  0.00  0.00    +0.000 A 
ATOM      9  C   UNL     1       7.909  -3.224  24.550  0.00  0.00    +0.000 A 
ATOM     10  N   UNL     1       8.433  -1.903  24.245  0.00  0.00    +0.000 NA
ENDROOT
BRANCH   1  11
ATOM     11  C   UNL     1       8.566  -1.437  21.807  0.00  0.00    +0.000 C 
BRANCH  11  18
ATOM     12  O   UNL     1      10.276   1.901  21.911  0.00  0.00    +0.000 OA
ATOM     13  C   UNL     1       9.161   1.081  22.134  0.00  0.00    +0.000 A 
ATOM     14  C   UNL     1       7.914   2.222  22.356  0.00  0.00    +0.000 A 
ATOM     15  C   UNL     1       6.993   2.050  21.192  0.00  0.00    +0.000 A 
ATOM     16  C   UNL     1       6.632   1.007  20.220  0.00  0.00    +0.000 A 
ATOM     17  C   UNL     1       7.827   0.022  19.965  0.00  0.00    +0.000 A 
ATOM     18  C   UNL     1       8.700   0.016  21.252  0.00  0.00    +0.000 A 
ENDBRANCH  11  18
ENDBRANCH   1  11
TORSDOF 2
ENDMDL
MODEL 2
REMARK VINA RESULT:      -6.5      2.331      3.172
REMARK  Name = 
REMARK  2 active torsions:
REMARK  status: ('A' for Active; 'I' for Inactive)
REMARK    1  A    between atoms: C_7  and  C_8
REMARK    2  A    between atoms: C_8  and  N_9
REMARK                            x       y       z     vdW  Elec       q    Type
REMARK                         _______ _______ _______ _____ _____    ______ ____
ROOT
ATOM      1  N   UNL     1       9.359  -3.126  24.481  0.00  0.00    +0.000 NA
ATOM      2  C   UNL     1       8.422  -4.128  24.448  0.00  0.00    +0.000 A 
ATOM      3  N   UNL     1       8.311  -4.869  23.414  0.00  0.00    +0.000 NA
ATOM      4  C   UNL     1       7.267  -4.709  22.682  0.00  0.00    +0.000 A 
ATOM      5  C   UNL     1       6.410  -6.056  22.363  0.00  0.00    +0.000 A 
ATOM      6  C   UNL     1       4.955  -5.714  22.602  0.00  0.00    +0.000 A 
ATOM      7  C   UNL     1       4.158  -4.684  23.294  0.00  0.00    +0.000 A 
ATOM      8  C   UNL     1       5.025  -3.398  23.633  0.00  0.00    +0.000 A 
ATOM      9  C   UNL     1       6.437  -3.683  23.464  0.00  0.00    +0.000 A 
ATOM     10  N   UNL     1       7.177  -3.487  24.700  0.00  0.00    +0.000 NA
ENDROOT
BRANCH   1  11
ATOM     11  C   UNL     1       8.931  -1.735  24.528  0.00  0.00    +0.000 C 
BRANCH  11  18
ATOM     12  O   UNL     1      11.678   0.817  24.664  0.00  0.00    +0.000 OA
ATOM     13  C   UNL     1      10.375   0.427  24.325  0.00  0.00    +0.000 A 
ATOM     14  C   UNL     1       9.895   1.666  23.256  0.00  0.00    +0.000 A 
ATOM     15  C   UNL     1       9.740   1.013  21.920  0.00  0.00    +0.000 A 
ATOM     16  C   UNL     1       9.485  -0.328  21.375  0.00  0.00    +0.000 A 
ATOM     17  C   UNL     1      10.017  -1.449  22.336  0.00  0.00    +0.000 A 
ATOM     18  C   UNL     1       9.991  -0.869  23.778  0.00  0.00    +0.000 A 
ENDBRANCH  11  18
ENDBRANCH   1  11
TORSDOF 2
ENDMDL
MODEL 3
REMARK VINA RESULT:      -6.5      3.002      6.030
REMARK  Name = 
REMARK  2 active torsions:
REMARK  status: ('A' for Active; 'I' for Inactive)
REMARK    1  A    between atoms: C_7  and  C_8
REMARK    2  A    between atoms: C_8  and  N_9
REMARK                            x       y       z     vdW  Elec       q    Type
REMARK                         _______ _______ _______ _____ _____    ______ ____
ROOT
ATOM      1  N   UNL     1       8.908  -3.170  23.642  0.00  0.00    +0.000 NA
ATOM      2  C   UNL     1       9.815  -2.142  23.585  0.00  0.00    +0.000 A 
ATOM      3  N   UNL     1       9.855  -1.269  24.517  0.00  0.00    +0.000 NA
ATOM      4  C   UNL     1       9.427  -0.089  24.240  0.00  0.00    +0.000 A 
ATOM      5  C   UNL     1      10.448   1.134  24.579  0.00  0.00    +0.000 A 
ATOM      6  C   UNL     1      10.461   2.039  23.366  0.00  0.00    +0.000 A 
ATOM      7  C   UNL     1      10.092   1.985  21.939  0.00  0.00    +0.000 A 
ATOM      8  C   UNL     1       9.132   0.761  21.625  0.00  0.00    +0.000 A 
ATOM      9  C   UNL     1       9.116  -0.166  22.740  0.00  0.00    +0.000 A 
ATOM     10  N   UNL     1       9.567  -1.491  22.345  0.00  0.00    +0.000 NA
ENDROOT
BRANCH   1  11
ATOM     11  C   UNL     1       7.841  -3.251  22.656  0.00  0.00    +0.000 C 
BRANCH  11  18
ATOM     12  O   UNL     1       5.946  -6.049  21.027  0.00  0.00    +0.000 OA
ATOM     13  C   UNL     1       6.026  -4.975  21.925  0.00  0.00    +0.000 A 
ATOM     14  C   UNL     1       4.647  -5.214  22.897  0.00  0.00    +0.000 A 
ATOM     15  C   UNL     1       5.163  -5.545  24.260  0.00  0.00    +0.000 A 
ATOM     16  C   UNL     1       6.381  -5.333  25.056  0.00  0.00    +0.000 A 
ATOM     17  C   UNL     1       7.650  -5.206  24.141  0.00  0.00    +0.000 A 
ATOM     18  C   UNL     1       7.172  -4.657  22.768  0.00  0.00    +0.000 A 
ENDBRANCH  11  18
ENDBRANCH   1  11
TORSDOF 2
ENDMDL
MODEL 4
REMARK VINA RESULT:      -6.3      2.888      5.930
REMARK  Name = 
REMARK  2 active torsions:
REMARK  status: ('A' for Active; 'I' for Inactive)
REMARK    1  A    between atoms: C_7  and  C_8
REMARK    2  A    between atoms: C_8  and  N_9
REMARK                            x       y       z     vdW  Elec       q    Type
REMARK                         _______ _______ _______ _____ _____    ______ ____
ROOT
ATOM      1  N   UNL     1       5.754  -2.495  23.815  0.00  0.00    +0.000 NA
ATOM      2  C   UNL     1       6.378  -1.377  23.323  0.00  0.00    +0.000 A 
ATOM      3  N   UNL     1       6.931  -1.405  22.171  0.00  0.00    +0.000 NA
ATOM      4  C   UNL     1       8.215  -1.388  22.130  0.00  0.00    +0.000 A 
ATOM      5  C   UNL     1       8.880  -0.241  21.186  0.00  0.00    +0.000 A 
ATOM      6  C   UNL     1       9.986   0.403  21.995  0.00  0.00    +0.000 A 
ATOM      7  C   UNL     1      10.410   0.510  23.403  0.00  0.00    +0.000 A 
ATOM      8  C   UNL     1       9.716  -0.590  24.312  0.00  0.00    +0.000 A 
ATOM      9  C   UNL     1       8.615  -1.212  23.601  0.00  0.00    +0.000 A 
ATOM     10  N   UNL     1       7.353  -1.030  24.300  0.00  0.00    +0.000 NA
ENDROOT
BRANCH   1  11
ATOM     11  C   UNL     1       6.293  -3.171  24.986  0.00  0.00    +0.000 C 
BRANCH  11  18
ATOM     12  O   UNL     1       8.983  -5.619  24.068  0.00  0.00    +0.000 OA
ATOM     13  C   UNL     1       7.876  -4.826  23.738  0.00  0.00    +0.000 A 
ATOM     14  C   UNL     1       7.405  -5.473  22.233  0.00  0.00    +0.000 A 
ATOM     15  C   UNL     1       6.067  -6.100  22.461  0.00  0.00    +0.000 A 
ATOM     16  C   UNL     1       4.939  -5.976  23.395  0.00  0.00    +0.000 A 
ATOM     17  C   UNL     1       5.413  -5.464  24.801  0.00  0.00    +0.000 A 
ATOM     18  C   UNL     1       6.699  -4.621  24.574  0.00  0.00    +0.000 A 
ENDBRANCH  11  18
ENDBRANCH   1  11
TORSDOF 2
ENDMDL
MODEL 5
REMARK VINA RESULT:      -6.3      2.859      6.306
REMARK  Name = 
REMARK  2 active torsions:
REMARK  status: ('A' for Active; 'I' for Inactive)
REMARK    1  A    between atoms: C_7  and  C_8
REMARK    2  A    between atoms: C_8  and  N_9
REMARK                            x       y       z     vdW  Elec       q    Type
REMARK                         _______ _______ _______ _____ _____    ______ ____
ROOT
ATOM      1  N   UNL     1       7.705  -2.688  22.780  0.00  0.00    +0.000 NA
ATOM      2  C   UNL     1       7.781  -1.319  22.816  0.00  0.00    +0.000 A 
ATOM      3  N   UNL     1       8.236  -0.674  21.811  0.00  0.00    +0.000 NA
ATOM      4  C   UNL     1       9.392  -0.127  21.935  0.00  0.00    +0.000 A 
ATOM      5  C   UNL     1       9.470   1.458  21.570  0.00  0.00    +0.000 A 
ATOM      6  C   UNL     1      10.245   2.125  22.686  0.00  0.00    +0.000 A 
ATOM      7  C   UNL     1      10.654   1.841  24.074  0.00  0.00    +0.000 A 
ATOM      8  C   UNL     1      10.529   0.297  24.421  0.00  0.00    +0.000 A 
ATOM      9  C   UNL     1       9.754  -0.388  23.403  0.00  0.00    +0.000 A 
ATOM     10  N   UNL     1       8.568  -1.016  23.962  0.00  0.00    +0.000 NA
ENDROOT
BRANCH   1  11
ATOM     11  C   UNL     1       8.535  -3.484  23.674  0.00  0.00    +0.000 C 
BRANCH  11  18
ATOM     12  O   UNL     1       6.986  -6.496  22.061  0.00  0.00    +0.000 OA
ATOM     13  C   UNL     1       6.898  -5.336  22.844  0.00  0.00    +0.000 A 
ATOM     14  C   UNL     1       5.384  -5.528  23.603  0.00  0.00    +0.000 A 
ATOM     15  C   UNL     1       5.677  -5.704  25.057  0.00  0.00    +0.000 A 
ATOM     16  C   UNL     1       6.744  -5.370  26.012  0.00  0.00    +0.000 A 
ATOM     17  C   UNL     1       8.142  -5.288  25.304  0.00  0.00    +0.000 A 
ATOM     18  C   UNL     1       7.885  -4.895  23.823  0.00  0.00    +0.000 A 
ENDBRANCH  11  18
ENDBRANCH   1  11
TORSDOF 2
ENDMDL
MODEL 6
REMARK VINA RESULT:      -6.3      1.816      2.148
REMARK  Name = 
REMARK  2 active torsions:
REMARK  status: ('A' for Active; 'I' for Inactive)
REMARK    1  A    between atoms: C_7  and  C_8
REMARK    2  A    between atoms: C_8  and  N_9
REMARK                            x       y       z     vdW  Elec       q    Type
REMARK                         _______ _______ _______ _____ _____    ______ ____
ROOT
ATOM      1  N   UNL     1       9.027  -1.435  23.268  0.00  0.00    +0.000 NA
ATOM      2  C   UNL     1       7.930  -2.107  23.742  0.00  0.00    +0.000 A 
ATOM      3  N   UNL     1       8.079  -3.135  24.486  0.00  0.00    +0.000 NA
ATOM      4  C   UNL     1       7.794  -4.280  23.977  0.00  0.00    +0.000 A 
ATOM      5  C   UNL     1       6.755  -5.198  24.831  0.00  0.00    +0.000 A 
ATOM      6  C   UNL     1       5.733  -5.728  23.848  0.00  0.00    +0.000 A 
ATOM      7  C   UNL     1       5.243  -5.430  22.489  0.00  0.00    +0.000 A 
ATOM      8  C   UNL     1       6.251  -4.499  21.692  0.00  0.00    +0.000 A 
ATOM      9  C   UNL     1       7.231  -3.925  22.595  0.00  0.00    +0.000 A 
ATOM     10  N   UNL     1       7.184  -2.471  22.587  0.00  0.00    +0.000 NA
ENDROOT
BRANCH   1  11
ATOM     11  C   UNL     1       9.309  -1.423  21.839  0.00  0.00    +0.000 C 
BRANCH  11  18
ATOM     12  O   UNL     1      10.440   2.152  21.935  0.00  0.00    +0.000 OA
ATOM     13  C   UNL     1       9.495   1.152  22.202  0.00  0.00    +0.000 A 
ATOM     14  C   UNL     1       8.092   2.061  22.536  0.00  0.00    +0.000 A 
ATOM     15  C   UNL     1       7.137   1.758  21.427  0.00  0.00    +0.000 A 
ATOM     16  C   UNL     1       6.893   0.687  20.449  0.00  0.00    +0.000 A 
ATOM     17  C   UNL     1       8.216  -0.077  20.091  0.00  0.00    +0.000 A 
ATOM     18  C   UNL     1       9.161   0.041  21.319  0.00  0.00    +0.000 A 
ENDBRANCH  11  18
ENDBRANCH   1  11
TORSDOF 2
ENDMDL
MODEL 7
REMARK VINA RESULT:      -6.3      2.609      3.376
REMARK  Name = 
REMARK  2 active torsions:
REMARK  status: ('A' for Active; 'I' for Inactive)
REMARK    1  A    between atoms: C_7  and  C_8
REMARK    2  A    between atoms: C_8  and  N_9
REMARK                            x       y       z     vdW  Elec       q    Type
REMARK                         _______ _______ _______ _____ _____    ______ ____
ROOT
ATOM      1  N   UNL     1       6.524  -2.154  21.497  0.00  0.00    +0.000 NA
ATOM      2  C   UNL     1       6.321  -3.456  21.876  0.00  0.00    +0.000 A 
ATOM      3  N   UNL     1       5.134  -3.922  21.962  0.00  0.00    +0.000 NA
ATOM      4  C   UNL     1       4.675  -4.154  23.140  0.00  0.00    +0.000 A 
ATOM      5  C   UNL     1       4.080  -5.649  23.388  0.00  0.00    +0.000 A 
ATOM      6  C   UNL     1       4.651  -6.132  24.704  0.00  0.00    +0.000 A 
ATOM      7  C   UNL     1       5.761  -5.803  25.618  0.00  0.00    +0.000 A 
ATOM      8  C   UNL     1       6.353  -4.359  25.329  0.00  0.00    +0.000 A 
ATOM      9  C   UNL     1       5.872  -3.863  24.053  0.00  0.00    +0.000 A 
ATOM     10  N   UNL     1       6.967  -3.586  23.136  0.00  0.00    +0.000 NA
ENDROOT
BRANCH   1  11
ATOM     11  C   UNL     1       7.090  -1.203  22.443  0.00  0.00    +0.000 C 
BRANCH  11  18
ATOM     12  O   UNL     1      10.780  -1.857  22.274  0.00  0.00    +0.000 OA
ATOM     13  C   UNL     1       9.681  -1.110  22.721  0.00  0.00    +0.000 A 
ATOM     14  C   UNL     1      10.421   0.322  23.275  0.00  0.00    +0.000 A 
ATOM     15  C   UNL     1       9.955   1.403  22.354  0.00  0.00    +0.000 A 
ATOM     16  C   UNL     1       8.823   1.669  21.454  0.00  0.00    +0.000 A 
ATOM     17  C   UNL     1       8.217   0.337  20.887  0.00  0.00    +0.000 A 
ATOM     18  C   UNL     1       8.502  -0.778  21.930  0.00  0.00    +0.000 A 
ENDBRANCH  11  18
ENDBRANCH   1  11
TORSDOF 2
ENDMDL
MODEL 8
REMARK VINA RESULT:      -6.2      1.710      2.965
REMARK  Name = 
REMARK  2 active torsions:
REMARK  status: ('A' for Active; 'I' for Inactive)
REMARK    1  A    between atoms: C_7  and  C_8
REMARK    2  A    between atoms: C_8  and  N_9
REMARK                            x       y       z     vdW  Elec       q    Type
REMARK                         _______ _______ _______ _____ _____    ______ ____
ROOT
ATOM      1  N   UNL     1       8.363  -2.592  22.233  0.00  0.00    +0.000 NA
ATOM      2  C   UNL     1       7.825  -3.660  22.905  0.00  0.00    +0.000 A 
ATOM      3  N   UNL     1       6.655  -3.577  23.412  0.00  0.00    +0.000 NA
ATOM      4  C   UNL     1       6.569  -3.515  24.692  0.00  0.00    +0.000 A 
ATOM      5  C   UNL     1       5.577  -4.601  25.390  0.00  0.00    +0.000 A 
ATOM      6  C   UNL     1       6.332  -5.191  26.562  0.00  0.00    +0.000 A 
ATOM      7  C   UNL     1       7.722  -5.299  27.043  0.00  0.00    +0.000 A 
ATOM      8  C   UNL     1       8.678  -4.261  26.318  0.00  0.00    +0.000 A 
ATOM      9  C   UNL     1       8.020  -3.694  25.156  0.00  0.00    +0.000 A 
ATOM     10  N   UNL     1       8.760  -3.966  23.934  0.00  0.00    +0.000 NA
ENDROOT
BRANCH   1  11
ATOM     11  C   UNL     1       9.529  -1.907  22.774  0.00  0.00    +0.000 C 
BRANCH  11  18
ATOM     12  O   UNL     1       7.636   1.211  21.898  0.00  0.00    +0.000 OA
ATOM     13  C   UNL     1       8.835   0.506  22.068  0.00  0.00    +0.000 A 
ATOM     14  C   UNL     1       9.989   1.760  22.099  0.00  0.00    +0.000 A 
ATOM     15  C   UNL     1      10.552   1.761  23.484  0.00  0.00    +0.000 A 
ATOM     16  C   UNL     1      10.710   0.827  24.607  0.00  0.00    +0.000 A 
ATOM     17  C   UNL     1       9.582  -0.265  24.608  0.00  0.00    +0.000 A 
ATOM     18  C   UNL     1       9.117  -0.446  23.137  0.00  0.00    +0.000 A 
ENDBRANCH  11  18
ENDBRANCH   1  11
TORSDOF 2
ENDMDL
MODEL 9
REMARK VINA RESULT:      -6.1      2.399      3.386
REMARK  Name = 
REMARK  2 active torsions:
REMARK  status: ('A' for Active; 'I' for Inactive)
REMARK    1  A    between atoms: C_7  and  C_8
REMARK    2  A    between atoms: C_8  and  N_9
REMARK                            x       y       z     vdW  Elec       q    Type
REMARK                         _______ _______ _______ _____ _____    ______ ____
ROOT
ATOM      1  N   UNL     1       6.923  -0.467  23.197  0.00  0.00    +0.000 NA
ATOM      2  C   UNL     1       6.207  -1.590  23.528  0.00  0.00    +0.000 A 
ATOM      3  N   UNL     1       6.627  -2.372  24.447  0.00  0.00    +0.000 NA
ATOM      4  C   UNL     1       7.082  -3.518  24.084  0.00  0.00    +0.000 A 
ATOM      5  C   UNL     1       6.430  -4.809  24.833  0.00  0.00    +0.000 A 
ATOM      6  C   UNL     1       6.102  -5.819  23.755  0.00  0.00    +0.000 A 
ATOM      7  C   UNL     1       5.917  -5.857  22.292  0.00  0.00    +0.000 A 
ATOM      8  C   UNL     1       6.521  -4.569  21.588  0.00  0.00    +0.000 A 
ATOM      9  C   UNL     1       6.815  -3.546  22.574  0.00  0.00    +0.000 A 
ATOM     10  N   UNL     1       6.074  -2.322  22.315  0.00  0.00    +0.000 NA
ENDROOT
BRANCH   1  11
ATOM     11  C   UNL     1       7.538  -0.361  21.882  0.00  0.00    +0.000 C 
BRANCH  11  18
ATOM     12  O   UNL     1      10.852  -1.960  22.614  0.00  0.00    +0.000 OA
ATOM     13  C   UNL     1       9.782  -1.127  22.968  0.00  0.00    +0.000 A 
ATOM     14  C   UNL     1      10.425  -0.254  24.283  0.00  0.00    +0.000 A 
ATOM     15  C   UNL     1      10.526   1.163  23.820  0.00  0.00    +0.000 A 
ATOM     16  C   UNL     1       9.904   2.039  22.817  0.00  0.00    +0.000 A 
ATOM     17  C   UNL     1       9.400   1.222  21.575  0.00  0.00    +0.000 A 
ATOM     18  C   UNL     1       9.081  -0.216  22.071  0.00  0.00    +0.000 A 
ENDBRANCH  11  18
ENDBRANCH   1  11
TORSDOF 2
ENDMDL
