MODEL 1
REMARK VINA RESULT:      -6.2      0.000      0.000
REMARK  Name = 
REMARK  3 active torsions:
REMARK  status: ('A' for Active; 'I' for Inactive)
REMARK    1  A    between atoms: C_7  and  N_8
REMARK    2  A    between atoms: C_9  and  C_11
REMARK    3  A    between atoms: C_17  and  C_19
REMARK                            x       y       z     vdW  Elec       q    Type
REMARK                         _______ _______ _______ _____ _____    ______ ____
ROOT
ATOM      1  N   UNL     1       9.184  -1.242  22.092  0.00  0.00    +0.000 NA
ATOM      2  C   UNL     1       7.923  -1.737  22.047  0.00  0.00    +0.000 C 
ATOM      3  O   UNL     1       7.163  -1.356  21.172  0.00  0.00    +0.000 OA
ENDROOT
BRANCH   2   4
ATOM      4  C   UNL     1       7.461  -2.498  23.241  0.00  0.00    +0.000 C 
ATOM      5  C   UNL     1       8.205  -3.749  23.455  0.00  0.00    +0.000 C 
ATOM      6  C   UNL     1       7.508  -5.019  23.150  0.00  0.00    +0.000 C 
ATOM      7  N   UNL     1       6.115  -5.042  23.598  0.00  0.00    +0.000 N 
ATOM      8  C   UNL     1       5.576  -3.793  24.172  0.00  0.00    +0.000 C 
ATOM      9  C   UNL     1       5.964  -2.664  23.210  0.00  0.00    +0.000 C 
ATOM     10  C   UNL     1       5.244  -5.734  22.788  0.00  0.00    +0.000 C 
ATOM     11  O   UNL     1       5.364  -5.599  21.580  0.00  0.00    +0.000 OA
BRANCH  10  12
ATOM     12  C   UNL     1       3.916  -6.076  23.407  0.00  0.00    +0.000 C 
ATOM     13 CL   UNL     1       4.116  -7.255  24.723  0.00  0.00    +0.000 Cl
ENDBRANCH  10  12
ENDBRANCH   2   4
BRANCH   1  20
ATOM     14  O   UNL     1       9.209  -0.516  25.599  0.00  0.00    +0.000 OA
ATOM     15  C   UNL     1       9.841  -0.497  24.345  0.00  0.00    +0.000 A 
ATOM     16  C   UNL     1      11.101   0.609  24.580  0.00  0.00    +0.000 A 
ATOM     17  C   UNL     1      10.781   1.798  23.726  0.00  0.00    +0.000 A 
ATOM     18  C   UNL     1      10.030   2.076  22.491  0.00  0.00    +0.000 A 
ATOM     19  C   UNL     1       8.838   1.067  22.304  0.00  0.00    +0.000 A 
ATOM     20  C   UNL     1       9.184  -0.217  23.073  0.00  0.00    +0.000 A 
ENDBRANCH   1  20
TORSDOF 3
ENDMDL
MODEL 2
REMARK VINA RESULT:      -6.1      2.789      3.074
REMARK  Name = 
REMARK  3 active torsions:
REMARK  status: ('A' for Active; 'I' for Inactive)
REMARK    1  A    between atoms: C_7  and  N_8
REMARK    2  A    between atoms: C_9  and  C_11
REMARK    3  A    between atoms: C_17  and  C_19
REMARK                            x       y       z     vdW  Elec       q    Type
REMARK                         _______ _______ _______ _____ _____    ______ ____
ROOT
ATOM      1  N   UNL     1      10.010  -2.750  23.809  0.00  0.00    +0.000 NA
ATOM      2  C   UNL     1       9.012  -3.577  24.204  0.00  0.00    +0.000 C 
ATOM      3  O   UNL     1       8.451  -4.273  23.375  0.00  0.00    +0.000 OA
ENDROOT
BRANCH   2   4
ATOM      4  C   UNL     1       8.476  -3.368  25.577  0.00  0.00    +0.000 C 
ATOM      5  C   UNL     1       8.902  -4.403  26.531  0.00  0.00    +0.000 C 
ATOM      6  C   UNL     1       7.891  -5.397  26.960  0.00  0.00    +0.000 C 
ATOM      7  N   UNL     1       6.577  -4.811  27.227  0.00  0.00    +0.000 N 
ATOM      8  C   UNL     1       6.411  -3.374  26.932  0.00  0.00    +0.000 C 
ATOM      9  C   UNL     1       6.986  -3.145  25.529  0.00  0.00    +0.000 C 
ATOM     10  C   UNL     1       5.499  -5.602  26.898  0.00  0.00    +0.000 C 
ATOM     11  O   UNL     1       5.550  -6.222  25.847  0.00  0.00    +0.000 OA
BRANCH  10  12
ATOM     12  C   UNL     1       4.182  -5.182  27.494  0.00  0.00    +0.000 C 
ATOM     13 CL   UNL     1       4.268  -5.167  29.270  0.00  0.00    +0.000 Cl
ENDBRANCH  10  12
ENDBRANCH   2   4
BRANCH   1  20
ATOM     14  O   UNL     1       8.969   0.209  25.538  0.00  0.00    +0.000 OA
ATOM     15  C   UNL     1       9.834  -0.439  24.641  0.00  0.00    +0.000 A 
ATOM     16  C   UNL     1      10.562   0.854  23.826  0.00  0.00    +0.000 A 
ATOM     17  C   UNL     1      10.074   0.786  22.411  0.00  0.00    +0.000 A 
ATOM     18  C   UNL     1       9.586  -0.244  21.480  0.00  0.00    +0.000 A 
ATOM     19  C   UNL     1       8.877  -1.421  22.246  0.00  0.00    +0.000 A 
ATOM     20  C   UNL     1       9.440  -1.457  23.674  0.00  0.00    +0.000 A 
ENDBRANCH   1  20
TORSDOF 3
ENDMDL
MODEL 3
REMARK VINA RESULT:      -6.1      3.478      6.944
REMARK  Name = 
REMARK  3 active torsions:
REMARK  status: ('A' for Active; 'I' for Inactive)
REMARK    1  A    between atoms: C_7  and  N_8
REMARK    2  A    between atoms: C_9  and  C_11
REMARK    3  A    between atoms: C_17  and  C_19
REMARK                            x       y       z     vdW  Elec       q    Type
REMARK                         _______ _______ _______ _____ _____    ______ ____
ROOT
ATOM      1  N   UNL     1       8.456  -3.540  23.318  0.00  0.00    +0.000 NA
ATOM      2  C   UNL     1       8.565  -2.193  23.425  0.00  0.00    +0.000 C 
ATOM      3  O   UNL     1       8.686  -1.690  24.528  0.00  0.00    +0.000 OA
ENDROOT
BRANCH   2   4
ATOM      4  C   UNL     1       8.242  -1.400  22.207  0.00  0.00    +0.000 C 
ATOM      5  C   UNL     1       9.420  -0.758  21.603  0.00  0.00    +0.000 C 
ATOM      6  C   UNL     1       9.557   0.708  21.763  0.00  0.00    +0.000 C 
ATOM      7  N   UNL     1       8.297   1.433  21.589  0.00  0.00    +0.000 N 
ATOM      8  C   UNL     1       7.078   0.622  21.396  0.00  0.00    +0.000 C 
ATOM      9  C   UNL     1       7.096  -0.461  22.482  0.00  0.00    +0.000 C 
ATOM     10  C   UNL     1       8.139   2.543  22.386  0.00  0.00    +0.000 C 
ATOM     11  O   UNL     1       8.494   2.460  23.552  0.00  0.00    +0.000 OA
BRANCH  10  12
ATOM     12  C   UNL     1       7.045   3.490  21.969  0.00  0.00    +0.000 C 
ATOM     13 CL   UNL     1       7.498   5.173  22.321  0.00  0.00    +0.000 Cl
ENDBRANCH  10  12
ENDBRANCH   2   4
BRANCH   1  20
ATOM     14  O   UNL     1       5.666  -3.571  21.074  0.00  0.00    +0.000 OA
ATOM     15  C   UNL     1       6.602  -4.256  21.865  0.00  0.00    +0.000 A 
ATOM     16  C   UNL     1       5.922  -5.802  21.992  0.00  0.00    +0.000 A 
ATOM     17  C   UNL     1       5.534  -5.973  23.429  0.00  0.00    +0.000 A 
ATOM     18  C   UNL     1       5.963  -5.453  24.738  0.00  0.00    +0.000 A 
ATOM     19  C   UNL     1       6.556  -4.001  24.612  0.00  0.00    +0.000 A 
ATOM     20  C   UNL     1       7.073  -3.828  23.177  0.00  0.00    +0.000 A 
ENDBRANCH   1  20
TORSDOF 3
ENDMDL
MODEL 4
REMARK VINA RESULT:      -6.1      3.405      7.187
REMARK  Name = 
REMARK  3 active torsions:
REMARK  status: ('A' for Active; 'I' for Inactive)
REMARK    1  A    between atoms: C_7  and  N_8
REMARK    2  A    between atoms: C_9  and  C_11
REMARK    3  A    between atoms: C_17  and  C_19
REMARK                            x       y       z     vdW  Elec       q    Type
REMARK                         _______ _______ _______ _____ _____    ______ ____
ROOT
ATOM      1  N   UNL     1       8.235  -4.148  23.705  0.00  0.00    +0.000 NA
ATOM      2  C   UNL     1       8.484  -2.915  24.208  0.00  0.00    +0.000 C 
ATOM      3  O   UNL     1       8.625  -2.778  25.411  0.00  0.00    +0.000 OA
ENDROOT
BRANCH   2   4
ATOM      4  C   UNL     1       8.281  -1.765  23.283  0.00  0.00    +0.000 C 
ATOM      5  C   UNL     1       9.309  -1.676  22.234  0.00  0.00    +0.000 C 
ATOM      6  C   UNL     1      10.318  -0.598  22.355  0.00  0.00    +0.000 C 
ATOM      7  N   UNL     1       9.753   0.683  22.780  0.00  0.00    +0.000 N 
ATOM      8  C   UNL     1       8.319   0.700  23.131  0.00  0.00    +0.000 C 
ATOM      9  C   UNL     1       8.082  -0.492  24.065  0.00  0.00    +0.000 C 
ATOM     10  C   UNL     1      10.561   1.445  23.593  0.00  0.00    +0.000 C 
ATOM     11  O   UNL     1      11.181   0.871  24.474  0.00  0.00    +0.000 OA
BRANCH  10  12
ATOM     12  C   UNL     1      10.162   2.890  23.732  0.00  0.00    +0.000 C 
ATOM     13 CL   UNL     1      11.527   3.962  23.348  0.00  0.00    +0.000 Cl
ENDBRANCH  10  12
ENDBRANCH   2   4
BRANCH   1  20
ATOM     14  O   UNL     1       5.561  -3.484  21.418  0.00  0.00    +0.000 OA
ATOM     15  C   UNL     1       6.368  -4.394  22.119  0.00  0.00    +0.000 A 
ATOM     16  C   UNL     1       5.492  -5.839  21.998  0.00  0.00    +0.000 A 
ATOM     17  C   UNL     1       5.026  -6.164  23.384  0.00  0.00    +0.000 A 
ATOM     18  C   UNL     1       5.462  -5.901  24.765  0.00  0.00    +0.000 A 
ATOM     19  C   UNL     1       6.239  -4.538  24.872  0.00  0.00    +0.000 A 
ATOM     20  C   UNL     1       6.834  -4.227  23.491  0.00  0.00    +0.000 A 
ENDBRANCH   1  20
TORSDOF 3
ENDMDL
MODEL 5
REMARK VINA RESULT:      -6.0      2.533      3.081
REMARK  Name = 
REMARK  3 active torsions:
REMARK  status: ('A' for Active; 'I' for Inactive)
REMARK    1  A    between atoms: C_7  and  N_8
REMARK    2  A    between atoms: C_9  and  C_11
REMARK    3  A    between atoms: C_17  and  C_19
REMARK                            x       y       z     vdW  Elec       q    Type
REMARK                         _______ _______ _______ _____ _____    ______ ____
ROOT
ATOM      1  N   UNL     1       8.940  -0.156  21.171  0.00  0.00    +0.000 NA
ATOM      2  C   UNL     1       8.128  -0.999  21.854  0.00  0.00    +0.000 C 
ATOM      3  O   UNL     1       7.106  -1.402  21.326  0.00  0.00    +0.000 OA
ENDROOT
BRANCH   2   4
ATOM      4  C   UNL     1       8.397  -1.149  23.311  0.00  0.00    +0.000 C 
ATOM      5  C   UNL     1       9.770  -1.587  23.606  0.00  0.00    +0.000 C 
ATOM      6  C   UNL     1       9.959  -2.984  24.061  0.00  0.00    +0.000 C 
ATOM      7  N   UNL     1       8.948  -3.426  25.022  0.00  0.00    +0.000 N 
ATOM      8  C   UNL     1       7.844  -2.488  25.312  0.00  0.00    +0.000 C 
ATOM      9  C   UNL     1       7.326  -1.989  23.958  0.00  0.00    +0.000 C 
ATOM     10  C   UNL     1       8.579  -4.748  24.927  0.00  0.00    +0.000 C 
ATOM     11  O   UNL     1       8.424  -5.215  23.809  0.00  0.00    +0.000 OA
BRANCH  10  12
ATOM     12  C   UNL     1       7.836  -5.300  26.114  0.00  0.00    +0.000 C 
ATOM     13 CL   UNL     1       6.155  -5.685  25.683  0.00  0.00    +0.000 Cl
ENDBRANCH  10  12
ENDBRANCH   2   4
BRANCH   1  20
ATOM     14  O   UNL     1       6.447   2.409  21.362  0.00  0.00    +0.000 OA
ATOM     15  C   UNL     1       7.262   1.451  21.987  0.00  0.00    +0.000 A 
ATOM     16  C   UNL     1       7.192   1.909  23.616  0.00  0.00    +0.000 A 
ATOM     17  C   UNL     1       8.566   2.384  23.977  0.00  0.00    +0.000 A 
ATOM     18  C   UNL     1       9.949   2.143  23.534  0.00  0.00    +0.000 A 
ATOM     19  C   UNL     1      10.004   1.757  22.010  0.00  0.00    +0.000 A 
ATOM     20  C   UNL     1       8.644   1.155  21.629  0.00  0.00    +0.000 A 
ENDBRANCH   1  20
TORSDOF 3
ENDMDL
MODEL 6
REMARK VINA RESULT:      -6.0      2.229      2.567
REMARK  Name = 
REMARK  3 active torsions:
REMARK  status: ('A' for Active; 'I' for Inactive)
REMARK    1  A    between atoms: C_7  and  N_8
REMARK    2  A    between atoms: C_9  and  C_11
REMARK    3  A    between atoms: C_17  and  C_19
REMARK                            x       y       z     vdW  Elec       q    Type
REMARK                         _______ _______ _______ _____ _____    ______ ____
ROOT
ATOM      1  N   UNL     1      10.011  -0.186  24.758  0.00  0.00    +0.000 NA
ATOM      2  C   UNL     1       9.609  -1.350  24.192  0.00  0.00    +0.000 C 
ATOM      3  O   UNL     1      10.302  -1.867  23.333  0.00  0.00    +0.000 OA
ENDROOT
BRANCH   2   4
ATOM      4  C   UNL     1       8.204  -1.767  24.453  0.00  0.00    +0.000 C 
ATOM      5  C   UNL     1       8.075  -2.692  25.590  0.00  0.00    +0.000 C 
ATOM      6  C   UNL     1       7.783  -4.112  25.286  0.00  0.00    +0.000 C 
ATOM      7  N   UNL     1       6.789  -4.289  24.227  0.00  0.00    +0.000 N 
ATOM      8  C   UNL     1       6.310  -3.068  23.547  0.00  0.00    +0.000 C 
ATOM      9  C   UNL     1       7.556  -2.253  23.182  0.00  0.00    +0.000 C 
ATOM     10  C   UNL     1       6.986  -5.375  23.405  0.00  0.00    +0.000 C 
ATOM     11  O   UNL     1       8.128  -5.612  23.043  0.00  0.00    +0.000 OA
BRANCH  10  12
ATOM     12  C   UNL     1       5.802  -5.777  22.567  0.00  0.00    +0.000 C 
ATOM     13 CL   UNL     1       6.210  -5.738  20.837  0.00  0.00    +0.000 Cl
ENDBRANCH  10  12
ENDBRANCH   2   4
BRANCH   1  20
ATOM     14  O   UNL     1       6.843   1.439  24.382  0.00  0.00    +0.000 OA
ATOM     15  C   UNL     1       8.179   1.458  24.811  0.00  0.00    +0.000 A 
ATOM     16  C   UNL     1       8.478   3.111  25.027  0.00  0.00    +0.000 A 
ATOM     17  C   UNL     1       9.475   3.497  23.978  0.00  0.00    +0.000 A 
ATOM     18  C   UNL     1      10.542   2.844  23.201  0.00  0.00    +0.000 A 
ATOM     19  C   UNL     1      10.234   1.318  22.974  0.00  0.00    +0.000 A 
ATOM     20  C   UNL     1       9.302   0.854  24.103  0.00  0.00    +0.000 A 
ENDBRANCH   1  20
TORSDOF 3
ENDMDL
MODEL 7
REMARK VINA RESULT:      -5.8      2.290      2.875
REMARK  Name = 
REMARK  3 active torsions:
REMARK  status: ('A' for Active; 'I' for Inactive)
REMARK    1  A    between atoms: C_7  and  N_8
REMARK    2  A    between atoms: C_9  and  C_11
REMARK    3  A    between atoms: C_17  and  C_19
REMARK                            x       y       z     vdW  Elec       q    Type
REMARK                         _______ _______ _______ _____ _____    ______ ____
ROOT
ATOM      1  N   UNL     1      10.267  -0.339  24.421  0.00  0.00    +0.000 NA
ATOM      2  C   UNL     1       9.756  -1.375  23.713  0.00  0.00    +0.000 C 
ATOM      3  O   UNL     1      10.410  -1.855  22.803  0.00  0.00    +0.000 OA
ENDROOT
BRANCH   2   4
ATOM      4  C   UNL     1       8.310  -1.668  23.909  0.00  0.00    +0.000 C 
ATOM      5  C   UNL     1       8.029  -2.393  25.158  0.00  0.00    +0.000 C 
ATOM      6  C   UNL     1       7.666  -3.825  25.051  0.00  0.00    +0.000 C 
ATOM      7  N   UNL     1       6.749  -4.112  23.948  0.00  0.00    +0.000 N 
ATOM      8  C   UNL     1       6.410  -2.991  23.049  0.00  0.00    +0.000 C 
ATOM      9  C   UNL     1       7.733  -2.313  22.675  0.00  0.00    +0.000 C 
ATOM     10  C   UNL     1       6.936  -5.324  23.323  0.00  0.00    +0.000 C 
ATOM     11  O   UNL     1       8.085  -5.678  23.105  0.00  0.00    +0.000 OA
BRANCH  10  12
ATOM     12  C   UNL     1       5.798  -5.789  22.455  0.00  0.00    +0.000 C 
ATOM     13 CL   UNL     1       6.246  -5.721  20.736  0.00  0.00    +0.000 Cl
ENDBRANCH  10  12
ENDBRANCH   2   4
BRANCH   1  20
ATOM     14  O   UNL     1      10.457   2.145  21.849  0.00  0.00    +0.000 OA
ATOM     15  C   UNL     1       9.794   1.067  22.456  0.00  0.00    +0.000 A 
ATOM     16  C   UNL     1       8.242   1.160  21.786  0.00  0.00    +0.000 A 
ATOM     17  C   UNL     1       7.322   1.532  22.908  0.00  0.00    +0.000 A 
ATOM     18  C   UNL     1       7.279   1.380  24.372  0.00  0.00    +0.000 A 
ATOM     19  C   UNL     1       8.726   1.335  24.987  0.00  0.00    +0.000 A 
ATOM     20  C   UNL     1       9.686   0.843  23.893  0.00  0.00    +0.000 A 
ENDBRANCH   1  20
TORSDOF 3
ENDMDL
MODEL 8
REMARK VINA RESULT:      -5.8      3.391      6.269
REMARK  Name = 
REMARK  3 active torsions:
REMARK  status: ('A' for Active; 'I' for Inactive)
REMARK    1  A    between atoms: C_7  and  N_8
REMARK    2  A    between atoms: C_9  and  C_11
REMARK    3  A    between atoms: C_17  and  C_19
REMARK                            x       y       z     vdW  Elec       q    Type
REMARK                         _______ _______ _______ _____ _____    ______ ____
ROOT
ATOM      1  N   UNL     1       7.864  -4.916  23.682  0.00  0.00    +0.000 NA
ATOM      2  C   UNL     1       8.495  -3.730  23.856  0.00  0.00    +0.000 C 
ATOM      3  O   UNL     1       9.637  -3.718  24.282  0.00  0.00    +0.000 OA
ENDROOT
BRANCH   2   4
ATOM      4  C   UNL     1       7.648  -2.507  23.785  0.00  0.00    +0.000 C 
ATOM      5  C   UNL     1       7.035  -2.301  22.464  0.00  0.00    +0.000 C 
ATOM      6  C   UNL     1       7.582  -1.216  21.618  0.00  0.00    +0.000 C 
ATOM      7  N   UNL     1       7.878   0.009  22.362  0.00  0.00    +0.000 N 
ATOM      8  C   UNL     1       7.704  -0.039  23.828  0.00  0.00    +0.000 C 
ATOM      9  C   UNL     1       8.405  -1.314  24.310  0.00  0.00    +0.000 C 
ATOM     10  C   UNL     1       8.976   0.714  21.928  0.00  0.00    +0.000 C 
ATOM     11  O   UNL     1       9.974   0.079  21.622  0.00  0.00    +0.000 OA
BRANCH  10  12
ATOM     12  C   UNL     1       9.076   2.131  22.426  0.00  0.00    +0.000 C 
ATOM     13 CL   UNL     1      10.460   2.318  23.526  0.00  0.00    +0.000 Cl
ENDBRANCH  10  12
ENDBRANCH   2   4
BRANCH   1  20
ATOM     14  O   UNL     1       7.778  -5.722  27.170  0.00  0.00    +0.000 OA
ATOM     15  C   UNL     1       7.597  -4.800  26.127  0.00  0.00    +0.000 A 
ATOM     16  C   UNL     1       6.676  -3.583  26.861  0.00  0.00    +0.000 A 
ATOM     17  C   UNL     1       5.329  -3.624  26.206  0.00  0.00    +0.000 A 
ATOM     18  C   UNL     1       4.766  -4.031  24.908  0.00  0.00    +0.000 A 
ATOM     19  C   UNL     1       5.607  -5.189  24.255  0.00  0.00    +0.000 A 
ATOM     20  C   UNL     1       7.034  -5.107  24.817  0.00  0.00    +0.000 A 
ENDBRANCH   1  20
TORSDOF 3
ENDMDL
MODEL 9
REMARK VINA RESULT:      -5.6      2.939      3.767
REMARK  Name = 
REMARK  3 active torsions:
REMARK  status: ('A' for Active; 'I' for Inactive)
REMARK    1  A    between atoms: C_7  and  N_8
REMARK    2  A    between atoms: C_9  and  C_11
REMARK    3  A    between atoms: C_17  and  C_19
REMARK                            x       y       z     vdW  Elec       q    Type
REMARK                         _______ _______ _______ _____ _____    ______ ____
ROOT
ATOM      1  N   UNL     1       9.688  -1.162  21.960  0.00  0.00    +0.000 NA
ATOM      2  C   UNL     1       8.602  -1.702  22.564  0.00  0.00    +0.000 C 
ATOM      3  O   UNL     1       8.044  -2.655  22.048  0.00  0.00    +0.000 OA
ENDROOT
BRANCH   2   4
ATOM      4  C   UNL     1       7.991  -0.911  23.668  0.00  0.00    +0.000 C 
ATOM      5  C   UNL     1       8.827  -0.863  24.878  0.00  0.00    +0.000 C 
ATOM      6  C   UNL     1       8.388  -1.664  26.045  0.00  0.00    +0.000 C 
ATOM      7  N   UNL     1       6.945  -1.601  26.284  0.00  0.00    +0.000 N 
ATOM      8  C   UNL     1       6.133  -0.865  25.295  0.00  0.00    +0.000 C 
ATOM      9  C   UNL     1       6.573  -1.359  23.912  0.00  0.00    +0.000 C 
ATOM     10  C   UNL     1       6.374  -2.758  26.762  0.00  0.00    +0.000 C 
ATOM     11  O   UNL     1       6.740  -3.816  26.271  0.00  0.00    +0.000 OA
BRANCH  10  12
ATOM     12  C   UNL     1       4.998  -2.606  27.352  0.00  0.00    +0.000 C 
ATOM     13 CL   UNL     1       3.790  -3.461  26.367  0.00  0.00    +0.000 Cl
ENDBRANCH  10  12
ENDBRANCH   2   4
BRANCH   1  20
ATOM     14  O   UNL     1       7.923  -0.002  19.068  0.00  0.00    +0.000 OA
ATOM     15  C   UNL     1       8.014  -0.156  20.460  0.00  0.00    +0.000 A 
ATOM     16  C   UNL     1       6.856   0.938  21.032  0.00  0.00    +0.000 A 
ATOM     17  C   UNL     1       7.614   2.018  21.742  0.00  0.00    +0.000 A 
ATOM     18  C   UNL     1       8.897   2.158  22.449  0.00  0.00    +0.000 A 
ATOM     19  C   UNL     1       9.976   1.164  21.883  0.00  0.00    +0.000 A 
ATOM     20  C   UNL     1       9.235  -0.021  21.247  0.00  0.00    +0.000 A 
ENDBRANCH   1  20
TORSDOF 3
ENDMDL
