MODEL 1
REMARK VINA RESULT:      -4.9      0.000      0.000
REMARK  Name = 
REMARK  1 active torsions:
REMARK  status: ('A' for Active; 'I' for Inactive)
REMARK    1  A    between atoms: C_10  and  C_12
REMARK                            x       y       z     vdW  Elec       q    Type
REMARK                         _______ _______ _______ _____ _____    ______ ____
ROOT
ATOM      1  C   UNL     1       7.002  -1.355  23.737  0.00  0.00    +0.000 C 
ATOM      2  C   UNL     1       8.464  -1.061  23.492  0.00  0.00    +0.000 C 
ATOM      3  O   UNL     1       9.257  -1.975  23.351  0.00  0.00    +0.000 OA
ATOM      4  N   UNL     1       8.808   0.221  23.189  0.00  0.00    +0.000 N 
ATOM      5  C   UNL     1       9.806   0.333  22.057  0.00  0.00    +0.000 C 
ATOM      6  C   UNL     1       9.099  -0.242  20.851  0.00  0.00    +0.000 C 
ATOM      7  N   UNL     1       7.800   0.388  20.638  0.00  0.00    +0.000 N 
ATOM      8  C   UNL     1       6.925   0.662  21.767  0.00  0.00    +0.000 C 
ATOM      9  C   UNL     1       7.678   1.171  22.970  0.00  0.00    +0.000 C 
ATOM     10  C   UNL     1       7.231   0.271  19.405  0.00  0.00    +0.000 C 
ATOM     11  O   UNL     1       7.890  -0.094  18.444  0.00  0.00    +0.000 OA
ENDROOT
BRANCH  10  12
ATOM     12  C   UNL     1       5.723   0.038  19.399  0.00  0.00    +0.000 C 
ATOM     13 CL   UNL     1       4.910   1.565  18.962  0.00  0.00    +0.000 Cl
ENDBRANCH  10  12
TORSDOF 1
ENDMDL
MODEL 2
REMARK VINA RESULT:      -4.8      2.126      2.901
REMARK  Name = 
REMARK  1 active torsions:
REMARK  status: ('A' for Active; 'I' for Inactive)
REMARK    1  A    between atoms: C_10  and  C_12
REMARK                            x       y       z     vdW  Elec       q    Type
REMARK                         _______ _______ _______ _____ _____    ______ ____
ROOT
ATOM      1  C   UNL     1      10.101   0.429  24.392  0.00  0.00    +0.000 C 
ATOM      2  C   UNL     1       9.590  -0.937  24.784  0.00  0.00    +0.000 C 
ATOM      3  O   UNL     1       8.758  -1.049  25.667  0.00  0.00    +0.000 OA
ATOM      4  N   UNL     1       9.894  -1.983  23.968  0.00  0.00    +0.000 N 
ATOM      5  C   UNL     1       8.729  -2.916  23.712  0.00  0.00    +0.000 C 
ATOM      6  C   UNL     1       7.698  -2.071  23.000  0.00  0.00    +0.000 C 
ATOM      7  N   UNL     1       8.264  -1.402  21.833  0.00  0.00    +0.000 N 
ATOM      8  C   UNL     1       9.584  -0.796  21.905  0.00  0.00    +0.000 C 
ATOM      9  C   UNL     1      10.564  -1.639  22.680  0.00  0.00    +0.000 C 
ATOM     10  C   UNL     1       7.401  -0.938  20.885  0.00  0.00    +0.000 C 
ATOM     11  O   UNL     1       6.237  -1.308  20.864  0.00  0.00    +0.000 OA
ENDROOT
BRANCH  10  12
ATOM     12  C   UNL     1       7.758   0.416  20.281  0.00  0.00    +0.000 C 
ATOM     13 CL   UNL     1       7.188   0.457  18.590  0.00  0.00    +0.000 Cl
ENDBRANCH  10  12
TORSDOF 1
ENDMDL
MODEL 3
REMARK VINA RESULT:      -4.8      3.406      4.192
REMARK  Name = 
REMARK  1 active torsions:
REMARK  status: ('A' for Active; 'I' for Inactive)
REMARK    1  A    between atoms: C_10  and  C_12
REMARK                            x       y       z     vdW  Elec       q    Type
REMARK                         _______ _______ _______ _____ _____    ______ ____
ROOT
ATOM      1  C   UNL     1       6.305  -5.566  21.096  0.00  0.00    +0.000 C 
ATOM      2  C   UNL     1       6.946  -5.475  22.460  0.00  0.00    +0.000 C 
ATOM      3  O   UNL     1       8.081  -5.886  22.632  0.00  0.00    +0.000 OA
ATOM      4  N   UNL     1       6.327  -4.709  23.400  0.00  0.00    +0.000 N 
ATOM      5  C   UNL     1       7.272  -3.832  24.192  0.00  0.00    +0.000 C 
ATOM      6  C   UNL     1       7.885  -2.895  23.177  0.00  0.00    +0.000 C 
ATOM      7  N   UNL     1       6.862  -2.208  22.394  0.00  0.00    +0.000 N 
ATOM      8  C   UNL     1       5.699  -2.934  21.909  0.00  0.00    +0.000 C 
ATOM      9  C   UNL     1       5.160  -3.905  22.929  0.00  0.00    +0.000 C 
ATOM     10  C   UNL     1       7.224  -1.071  21.734  0.00  0.00    +0.000 C 
ATOM     11  O   UNL     1       8.266  -0.495  22.004  0.00  0.00    +0.000 OA
ENDROOT
BRANCH  10  12
ATOM     12  C   UNL     1       6.629  -0.907  20.339  0.00  0.00    +0.000 C 
ATOM     13 CL   UNL     1       7.743   0.082  19.354  0.00  0.00    +0.000 Cl
ENDBRANCH  10  12
TORSDOF 1
ENDMDL
MODEL 4
REMARK VINA RESULT:      -4.8      3.946      5.596
REMARK  Name = 
REMARK  1 active torsions:
REMARK  status: ('A' for Active; 'I' for Inactive)
REMARK    1  A    between atoms: C_10  and  C_12
REMARK                            x       y       z     vdW  Elec       q    Type
REMARK                         _______ _______ _______ _____ _____    ______ ____
ROOT
ATOM      1  C   UNL     1       5.989  -2.302  21.253  0.00  0.00    +0.000 C 
ATOM      2  C   UNL     1       5.738  -3.721  21.708  0.00  0.00    +0.000 C 
ATOM      3  O   UNL     1       5.996  -4.655  20.969  0.00  0.00    +0.000 OA
ATOM      4  N   UNL     1       5.461  -3.923  23.025  0.00  0.00    +0.000 N 
ATOM      5  C   UNL     1       6.189  -5.106  23.627  0.00  0.00    +0.000 C 
ATOM      6  C   UNL     1       7.656  -4.761  23.521  0.00  0.00    +0.000 C 
ATOM      7  N   UNL     1       7.945  -3.455  24.103  0.00  0.00    +0.000 N 
ATOM      8  C   UNL     1       7.050  -2.333  23.866  0.00  0.00    +0.000 C 
ATOM      9  C   UNL     1       5.598  -2.733  23.916  0.00  0.00    +0.000 C 
ATOM     10  C   UNL     1       9.238  -3.178  24.437  0.00  0.00    +0.000 C 
ATOM     11  O   UNL     1      10.068  -4.070  24.513  0.00  0.00    +0.000 OA
ENDROOT
BRANCH  10  12
ATOM     12  C   UNL     1       9.704  -1.758  24.133  0.00  0.00    +0.000 C 
ATOM     13 CL   UNL     1      10.427  -1.729  22.501  0.00  0.00    +0.000 Cl
ENDBRANCH  10  12
TORSDOF 1
ENDMDL
MODEL 5
REMARK VINA RESULT:      -4.7      5.770      6.937
REMARK  Name = 
REMARK  1 active torsions:
REMARK  status: ('A' for Active; 'I' for Inactive)
REMARK    1  A    between atoms: C_10  and  C_12
REMARK                            x       y       z     vdW  Elec       q    Type
REMARK                         _______ _______ _______ _____ _____    ______ ____
ROOT
ATOM      1  C   UNL     1       4.440  -3.496  24.219  0.00  0.00    +0.000 C 
ATOM      2  C   UNL     1       4.923  -4.205  22.975  0.00  0.00    +0.000 C 
ATOM      3  O   UNL     1       5.214  -3.565  21.980  0.00  0.00    +0.000 OA
ATOM      4  N   UNL     1       5.254  -5.520  23.086  0.00  0.00    +0.000 N 
ATOM      5  C   UNL     1       6.537  -5.889  22.373  0.00  0.00    +0.000 C 
ATOM      6  C   UNL     1       7.616  -5.091  23.066  0.00  0.00    +0.000 C 
ATOM      7  N   UNL     1       7.593  -5.297  24.511  0.00  0.00    +0.000 N 
ATOM      8  C   UNL     1       6.327  -5.334  25.226  0.00  0.00    +0.000 C 
ATOM      9  C   UNL     1       5.260  -6.083  24.469  0.00  0.00    +0.000 C 
ATOM     10  C   UNL     1       8.714  -4.975  25.217  0.00  0.00    +0.000 C 
ATOM     11  O   UNL     1       9.780  -4.793  24.650  0.00  0.00    +0.000 OA
ENDROOT
BRANCH  10  12
ATOM     12  C   UNL     1       8.469  -4.303  26.564  0.00  0.00    +0.000 C 
ATOM     13 CL   UNL     1       8.416  -2.535  26.321  0.00  0.00    +0.000 Cl
ENDBRANCH  10  12
TORSDOF 1
ENDMDL
MODEL 6
REMARK VINA RESULT:      -4.7      3.316      4.036
REMARK  Name = 
REMARK  1 active torsions:
REMARK  status: ('A' for Active; 'I' for Inactive)
REMARK    1  A    between atoms: C_10  and  C_12
REMARK                            x       y       z     vdW  Elec       q    Type
REMARK                         _______ _______ _______ _____ _____    ______ ____
ROOT
ATOM      1  C   UNL     1      10.493  -1.586  22.713  0.00  0.00    +0.000 C 
ATOM      2  C   UNL     1       9.580  -0.418  22.422  0.00  0.00    +0.000 C 
ATOM      3  O   UNL     1       9.693   0.202  21.379  0.00  0.00    +0.000 OA
ATOM      4  N   UNL     1       8.495  -0.249  23.226  0.00  0.00    +0.000 N 
ATOM      5  C   UNL     1       7.225   0.084  22.474  0.00  0.00    +0.000 C 
ATOM      6  C   UNL     1       6.957  -1.119  21.600  0.00  0.00    +0.000 C 
ATOM      7  N   UNL     1       6.948  -2.355  22.375  0.00  0.00    +0.000 N 
ATOM      8  C   UNL     1       7.947  -2.580  23.408  0.00  0.00    +0.000 C 
ATOM      9  C   UNL     1       8.232  -1.338  24.213  0.00  0.00    +0.000 C 
ATOM     10  C   UNL     1       6.346  -3.447  21.824  0.00  0.00    +0.000 C 
ATOM     11  O   UNL     1       5.604  -3.333  20.861  0.00  0.00    +0.000 OA
ENDROOT
BRANCH  10  12
ATOM     12  C   UNL     1       7.061  -4.775  22.053  0.00  0.00    +0.000 C 
ATOM     13 CL   UNL     1       6.032  -6.094  21.429  0.00  0.00    +0.000 Cl
ENDBRANCH  10  12
TORSDOF 1
ENDMDL
MODEL 7
REMARK VINA RESULT:      -4.6      2.158      2.743
REMARK  Name = 
REMARK  1 active torsions:
REMARK  status: ('A' for Active; 'I' for Inactive)
REMARK    1  A    between atoms: C_10  and  C_12
REMARK                            x       y       z     vdW  Elec       q    Type
REMARK                         _______ _______ _______ _____ _____    ______ ____
ROOT
ATOM      1  C   UNL     1       7.894  -3.191  23.139  0.00  0.00    +0.000 C 
ATOM      2  C   UNL     1       9.027  -2.729  24.026  0.00  0.00    +0.000 C 
ATOM      3  O   UNL     1      10.158  -3.141  23.838  0.00  0.00    +0.000 OA
ATOM      4  N   UNL     1       8.792  -1.674  24.853  0.00  0.00    +0.000 N 
ATOM      5  C   UNL     1       9.915  -0.661  24.885  0.00  0.00    +0.000 C 
ATOM      6  C   UNL     1       9.997  -0.120  23.476  0.00  0.00    +0.000 C 
ATOM      7  N   UNL     1       8.701   0.360  23.008  0.00  0.00    +0.000 N 
ATOM      8  C   UNL     1       7.494  -0.403  23.284  0.00  0.00    +0.000 C 
ATOM      9  C   UNL     1       7.482  -0.979  24.677  0.00  0.00    +0.000 C 
ATOM     10  C   UNL     1       8.685   1.215  21.946  0.00  0.00    +0.000 C 
ATOM     11  O   UNL     1       9.705   1.777  21.580  0.00  0.00    +0.000 OA
ENDROOT
BRANCH  10  12
ATOM     12  C   UNL     1       7.566   0.984  20.936  0.00  0.00    +0.000 C 
ATOM     13 CL   UNL     1       8.150  -0.141  19.680  0.00  0.00    +0.000 Cl
ENDBRANCH  10  12
TORSDOF 1
ENDMDL
MODEL 8
REMARK VINA RESULT:      -4.6      2.793      4.060
REMARK  Name = 
REMARK  1 active torsions:
REMARK  status: ('A' for Active; 'I' for Inactive)
REMARK    1  A    between atoms: C_10  and  C_12
REMARK                            x       y       z     vdW  Elec       q    Type
REMARK                         _______ _______ _______ _____ _____    ______ ____
ROOT
ATOM      1  C   UNL     1       7.310  -4.979  22.450  0.00  0.00    +0.000 C 
ATOM      2  C   UNL     1       7.924  -4.866  23.826  0.00  0.00    +0.000 C 
ATOM      3  O   UNL     1       8.916  -5.516  24.109  0.00  0.00    +0.000 OA
ATOM      4  N   UNL     1       7.496  -3.852  24.627  0.00  0.00    +0.000 N 
ATOM      5  C   UNL     1       8.613  -3.136  25.355  0.00  0.00    +0.000 C 
ATOM      6  C   UNL     1       9.463  -2.523  24.266  0.00  0.00    +0.000 C 
ATOM      7  N   UNL     1       8.663  -1.717  23.349  0.00  0.00    +0.000 N 
ATOM      8  C   UNL     1       7.366  -2.194  22.895  0.00  0.00    +0.000 C 
ATOM      9  C   UNL     1       6.578  -2.858  23.997  0.00  0.00    +0.000 C 
ATOM     10  C   UNL     1       9.311  -0.803  22.573  0.00  0.00    +0.000 C 
ATOM     11  O   UNL     1      10.459  -0.469  22.826  0.00  0.00    +0.000 OA
ENDROOT
BRANCH  10  12
ATOM     12  C   UNL     1       8.808  -0.686  21.138  0.00  0.00    +0.000 C 
ATOM     13 CL   UNL     1       8.103   0.938  20.909  0.00  0.00    +0.000 Cl
ENDBRANCH  10  12
TORSDOF 1
ENDMDL
MODEL 9
REMARK VINA RESULT:      -4.6      4.138      5.483
REMARK  Name = 
REMARK  1 active torsions:
REMARK  status: ('A' for Active; 'I' for Inactive)
REMARK    1  A    between atoms: C_10  and  C_12
REMARK                            x       y       z     vdW  Elec       q    Type
REMARK                         _______ _______ _______ _____ _____    ______ ____
ROOT
ATOM      1  C   UNL     1       8.754   0.648  25.185  0.00  0.00    +0.000 C 
ATOM      2  C   UNL     1       9.372   0.355  23.838  0.00  0.00    +0.000 C 
ATOM      3  O   UNL     1      10.541   0.629  23.628  0.00  0.00    +0.000 OA
ATOM      4  N   UNL     1       8.671  -0.434  22.979  0.00  0.00    +0.000 N 
ATOM      5  C   UNL     1       9.515  -1.478  22.282  0.00  0.00    +0.000 C 
ATOM      6  C   UNL     1      10.037  -2.366  23.387  0.00  0.00    +0.000 C 
ATOM      7  N   UNL     1       8.956  -2.863  24.233  0.00  0.00    +0.000 N 
ATOM      8  C   UNL     1       7.877  -1.976  24.640  0.00  0.00    +0.000 C 
ATOM      9  C   UNL     1       7.432  -1.062  23.526  0.00  0.00    +0.000 C 
ATOM     10  C   UNL     1       9.205  -3.958  25.005  0.00  0.00    +0.000 C 
ATOM     11  O   UNL     1      10.181  -4.662  24.797  0.00  0.00    +0.000 OA
ENDROOT
BRANCH  10  12
ATOM     12  C   UNL     1       8.608  -3.920  26.408  0.00  0.00    +0.000 C 
ATOM     13 CL   UNL     1       7.652  -5.406  26.664  0.00  0.00    +0.000 Cl
ENDBRANCH  10  12
TORSDOF 1
ENDMDL
