MODEL 1
REMARK VINA RESULT:      -6.5      0.000      0.000
REMARK  Name = 
REMARK  3 active torsions:
REMARK  status: ('A' for Active; 'I' for Inactive)
REMARK    1  A    between atoms: C_6  and  S_8
REMARK    2  A    between atoms: S_8  and  N_11
REMARK    3  A    between atoms: C_17  and  C_19
REMARK                            x       y       z     vdW  Elec       q    Type
REMARK                         _______ _______ _______ _____ _____    ______ ____
ROOT
ATOM      1  S   UNL     1       8.810  -0.846  21.632  0.00  0.00    +0.000 S 
ATOM      2  O   UNL     1      10.185  -1.144  21.954  0.00  0.00    +0.000 OA
ATOM      3  O   UNL     1       8.580  -0.369  20.299  0.00  0.00    +0.000 OA
ENDROOT
BRANCH   1   4
ATOM      4  N   UNL     1       7.876  -2.110  21.954  0.00  0.00    +0.000 NA
ATOM      5  C   UNL     1       8.215  -2.879  23.070  0.00  0.00    +0.000 C 
ATOM      6  C   UNL     1       7.702  -4.310  22.880  0.00  0.00    +0.000 C 
ATOM      7  N   UNL     1       6.501  -4.280  22.059  0.00  0.00    +0.000 N 
ATOM      8  C   UNL     1       5.665  -3.100  22.019  0.00  0.00    +0.000 C 
ATOM      9  C   UNL     1       6.490  -1.837  21.894  0.00  0.00    +0.000 C 
ATOM     10  C   UNL     1       5.979  -5.464  21.647  0.00  0.00    +0.000 C 
ATOM     11  O   UNL     1       5.954  -5.763  20.478  0.00  0.00    +0.000 OA
BRANCH  10  12
ATOM     12  C   UNL     1       5.433  -6.360  22.729  0.00  0.00    +0.000 C 
ATOM     13 CL   UNL     1       3.739  -5.928  23.080  0.00  0.00    +0.000 Cl
ENDBRANCH  10  12
ENDBRANCH   1   4
BRANCH   1  19
ATOM     14  F   UNL     1      11.425   0.645  24.450  0.00  0.00    +0.000 F 
ATOM     15  C   UNL     1      10.236   1.265  24.580  0.00  0.00    +0.000 A 
ATOM     16  C   UNL     1      10.570   2.599  23.667  0.00  0.00    +0.000 A 
ATOM     17  C   UNL     1       9.425   2.806  22.700  0.00  0.00    +0.000 A 
ATOM     18  C   UNL     1       8.610   1.775  21.908  0.00  0.00    +0.000 A 
ATOM     19  C   UNL     1       8.294   0.494  22.750  0.00  0.00    +0.000 A 
ATOM     20  C   UNL     1       9.248   0.425  23.886  0.00  0.00    +0.000 A 
ENDBRANCH   1  19
TORSDOF 3
ENDMDL
MODEL 2
REMARK VINA RESULT:      -6.5      3.151      4.300
REMARK  Name = 
REMARK  3 active torsions:
REMARK  status: ('A' for Active; 'I' for Inactive)
REMARK    1  A    between atoms: C_6  and  S_8
REMARK    2  A    between atoms: S_8  and  N_11
REMARK    3  A    between atoms: C_17  and  C_19
REMARK                            x       y       z     vdW  Elec       q    Type
REMARK                         _______ _______ _______ _____ _____    ______ ____
ROOT
ATOM      1  S   UNL     1       8.786  -2.283  24.364  0.00  0.00    +0.000 S 
ATOM      2  O   UNL     1       7.756  -3.112  24.941  0.00  0.00    +0.000 OA
ATOM      3  O   UNL     1      10.075  -2.900  24.240  0.00  0.00    +0.000 OA
ENDROOT
BRANCH   1   4
ATOM      4  N   UNL     1       8.301  -1.691  22.954  0.00  0.00    +0.000 NA
ATOM      5  C   UNL     1       9.256  -1.616  21.937  0.00  0.00    +0.000 C 
ATOM      6  C   UNL     1       8.875  -0.502  20.957  0.00  0.00    +0.000 C 
ATOM      7  N   UNL     1       7.425  -0.369  20.930  0.00  0.00    +0.000 N 
ATOM      8  C   UNL     1       6.575  -1.491  21.264  0.00  0.00    +0.000 C 
ATOM      9  C   UNL     1       7.072  -2.219  22.494  0.00  0.00    +0.000 C 
ATOM     10  C   UNL     1       6.893   0.669  20.236  0.00  0.00    +0.000 C 
ATOM     11  O   UNL     1       6.286   1.549  20.797  0.00  0.00    +0.000 OA
BRANCH  10  12
ATOM     12  C   UNL     1       7.098   0.644  18.743  0.00  0.00    +0.000 C 
ATOM     13 CL   UNL     1       5.592   0.141  17.931  0.00  0.00    +0.000 Cl
ENDBRANCH  10  12
ENDBRANCH   1   4
BRANCH   1  19
ATOM     14  F   UNL     1      10.838   1.071  23.122  0.00  0.00    +0.000 F 
ATOM     15  C   UNL     1      10.469   1.231  24.409  0.00  0.00    +0.000 A 
ATOM     16  C   UNL     1       9.075   2.074  24.148  0.00  0.00    +0.000 A 
ATOM     17  C   UNL     1       7.978   1.436  24.972  0.00  0.00    +0.000 A 
ATOM     18  C   UNL     1       7.693  -0.045  25.251  0.00  0.00    +0.000 A 
ATOM     19  C   UNL     1       9.004  -0.867  25.488  0.00  0.00    +0.000 A 
ATOM     20  C   UNL     1      10.149  -0.110  24.922  0.00  0.00    +0.000 A 
ENDBRANCH   1  19
TORSDOF 3
ENDMDL
MODEL 3
REMARK VINA RESULT:      -6.4      2.642      3.502
REMARK  Name = 
REMARK  3 active torsions:
REMARK  status: ('A' for Active; 'I' for Inactive)
REMARK    1  A    between atoms: C_6  and  S_8
REMARK    2  A    between atoms: S_8  and  N_11
REMARK    3  A    between atoms: C_17  and  C_19
REMARK                            x       y       z     vdW  Elec       q    Type
REMARK                         _______ _______ _______ _____ _____    ______ ____
ROOT
ATOM      1  S   UNL     1       9.435   1.411  24.130  0.00  0.00    +0.000 S 
ATOM      2  O   UNL     1       8.693   2.161  25.114  0.00  0.00    +0.000 OA
ATOM      3  O   UNL     1      10.862   1.472  24.258  0.00  0.00    +0.000 OA
ENDROOT
BRANCH   1   4
ATOM      4  N   UNL     1       8.931  -0.111  24.093  0.00  0.00    +0.000 NA
ATOM      5  C   UNL     1       9.891  -1.101  24.319  0.00  0.00    +0.000 C 
ATOM      6  C   UNL     1       9.455  -2.402  23.639  0.00  0.00    +0.000 C 
ATOM      7  N   UNL     1       8.001  -2.459  23.610  0.00  0.00    +0.000 N 
ATOM      8  C   UNL     1       7.215  -1.748  24.595  0.00  0.00    +0.000 C 
ATOM      9  C   UNL     1       7.741  -0.347  24.820  0.00  0.00    +0.000 C 
ATOM     10  C   UNL     1       7.415  -3.464  22.910  0.00  0.00    +0.000 C 
ATOM     11  O   UNL     1       6.751  -3.238  21.928  0.00  0.00    +0.000 OA
BRANCH  10  12
ATOM     12  C   UNL     1       7.638  -4.858  23.439  0.00  0.00    +0.000 C 
ATOM     13 CL   UNL     1       7.374  -6.051  22.140  0.00  0.00    +0.000 Cl
ENDBRANCH  10  12
ENDBRANCH   1   4
BRANCH   1  19
ATOM     14  F   UNL     1       8.505  -1.006  20.922  0.00  0.00    +0.000 F 
ATOM     15  C   UNL     1       8.502   0.280  20.520  0.00  0.00    +0.000 A 
ATOM     16  C   UNL     1       6.885   0.569  20.680  0.00  0.00    +0.000 A 
ATOM     17  C   UNL     1       6.712   1.866  21.440  0.00  0.00    +0.000 A 
ATOM     18  C   UNL     1       7.500   2.417  22.635  0.00  0.00    +0.000 A 
ATOM     19  C   UNL     1       9.036   2.141  22.511  0.00  0.00    +0.000 A 
ATOM     20  C   UNL     1       9.244   1.038  21.539  0.00  0.00    +0.000 A 
ENDBRANCH   1  19
TORSDOF 3
ENDMDL
MODEL 4
REMARK VINA RESULT:      -6.4      3.510      6.164
REMARK  Name = 
REMARK  3 active torsions:
REMARK  status: ('A' for Active; 'I' for Inactive)
REMARK    1  A    between atoms: C_6  and  S_8
REMARK    2  A    between atoms: S_8  and  N_11
REMARK    3  A    between atoms: C_17  and  C_19
REMARK                            x       y       z     vdW  Elec       q    Type
REMARK                         _______ _______ _______ _____ _____    ______ ____
ROOT
ATOM      1  S   UNL     1       5.744  -3.467  23.132  0.00  0.00    +0.000 S 
ATOM      2  O   UNL     1       4.821  -3.250  24.220  0.00  0.00    +0.000 OA
ATOM      3  O   UNL     1       5.147  -3.869  21.891  0.00  0.00    +0.000 OA
ENDROOT
BRANCH   1   4
ATOM      4  N   UNL     1       6.675  -2.177  22.925  0.00  0.00    +0.000 NA
ATOM      5  C   UNL     1       6.775  -1.671  21.626  0.00  0.00    +0.000 C 
ATOM      6  C   UNL     1       8.107  -0.933  21.466  0.00  0.00    +0.000 C 
ATOM      7  N   UNL     1       8.498  -0.373  22.752  0.00  0.00    +0.000 N 
ATOM      8  C   UNL     1       7.501  -0.053  23.750  0.00  0.00    +0.000 C 
ATOM      9  C   UNL     1       6.472  -1.155  23.881  0.00  0.00    +0.000 C 
ATOM     10  C   UNL     1       9.729   0.191  22.855  0.00  0.00    +0.000 C 
ATOM     11  O   UNL     1      10.577  -0.287  23.569  0.00  0.00    +0.000 OA
BRANCH  10  12
ATOM     12  C   UNL     1       9.959   1.438  22.040  0.00  0.00    +0.000 C 
ATOM     13 CL   UNL     1      10.511   2.763  23.098  0.00  0.00    +0.000 Cl
ENDBRANCH  10  12
ENDBRANCH   1   4
BRANCH   1  19
ATOM     14  F   UNL     1       9.336  -2.686  24.999  0.00  0.00    +0.000 F 
ATOM     15  C   UNL     1       9.209  -4.016  24.825  0.00  0.00    +0.000 A 
ATOM     16  C   UNL     1       8.598  -4.387  26.312  0.00  0.00    +0.000 A 
ATOM     17  C   UNL     1       7.385  -5.271  26.116  0.00  0.00    +0.000 A 
ATOM     18  C   UNL     1       6.278  -5.198  25.057  0.00  0.00    +0.000 A 
ATOM     19  C   UNL     1       6.834  -4.833  23.640  0.00  0.00    +0.000 A 
ATOM     20  C   UNL     1       8.171  -4.207  23.801  0.00  0.00    +0.000 A 
ENDBRANCH   1  19
TORSDOF 3
ENDMDL
MODEL 5
REMARK VINA RESULT:      -6.3      2.380      2.826
REMARK  Name = 
REMARK  3 active torsions:
REMARK  status: ('A' for Active; 'I' for Inactive)
REMARK    1  A    between atoms: C_6  and  S_8
REMARK    2  A    between atoms: S_8  and  N_11
REMARK    3  A    between atoms: C_17  and  C_19
REMARK                            x       y       z     vdW  Elec       q    Type
REMARK                         _______ _______ _______ _____ _____    ______ ____
ROOT
ATOM      1  S   UNL     1       7.726   0.226  21.384  0.00  0.00    +0.000 S 
ATOM      2  O   UNL     1       7.533  -0.080  19.987  0.00  0.00    +0.000 OA
ATOM      3  O   UNL     1       7.039   1.394  21.857  0.00  0.00    +0.000 OA
ENDROOT
BRANCH   1   4
ATOM      4  N   UNL     1       7.371  -1.049  22.289  0.00  0.00    +0.000 NA
ATOM      5  C   UNL     1       6.860  -0.797  23.565  0.00  0.00    +0.000 C 
ATOM      6  C   UNL     1       7.182  -1.976  24.488  0.00  0.00    +0.000 C 
ATOM      7  N   UNL     1       7.240  -3.197  23.696  0.00  0.00    +0.000 N 
ATOM      8  C   UNL     1       6.504  -3.306  22.456  0.00  0.00    +0.000 C 
ATOM      9  C   UNL     1       6.644  -2.057  21.613  0.00  0.00    +0.000 C 
ATOM     10  C   UNL     1       7.664  -4.333  24.306  0.00  0.00    +0.000 C 
ATOM     11  O   UNL     1       8.691  -4.874  23.975  0.00  0.00    +0.000 OA
BRANCH  10  12
ATOM     12  C   UNL     1       6.776  -4.871  25.400  0.00  0.00    +0.000 C 
ATOM     13 CL   UNL     1       7.737  -5.168  26.872  0.00  0.00    +0.000 Cl
ENDBRANCH  10  12
ENDBRANCH   1   4
BRANCH   1  19
ATOM     14  F   UNL     1       9.055   2.451  24.591  0.00  0.00    +0.000 F 
ATOM     15  C   UNL     1      10.107   2.122  23.816  0.00  0.00    +0.000 A 
ATOM     16  C   UNL     1      10.590   0.777  24.640  0.00  0.00    +0.000 A 
ATOM     17  C   UNL     1      10.800  -0.338  23.639  0.00  0.00    +0.000 A 
ATOM     18  C   UNL     1       9.984  -0.707  22.394  0.00  0.00    +0.000 A 
ATOM     19  C   UNL     1       9.502   0.556  21.603  0.00  0.00    +0.000 A 
ATOM     20  C   UNL     1       9.558   1.732  22.508  0.00  0.00    +0.000 A 
ENDBRANCH   1  19
TORSDOF 3
ENDMDL
MODEL 6
REMARK VINA RESULT:      -6.3      3.648      6.194
REMARK  Name = 
REMARK  3 active torsions:
REMARK  status: ('A' for Active; 'I' for Inactive)
REMARK    1  A    between atoms: C_6  and  S_8
REMARK    2  A    between atoms: S_8  and  N_11
REMARK    3  A    between atoms: C_17  and  C_19
REMARK                            x       y       z     vdW  Elec       q    Type
REMARK                         _______ _______ _______ _____ _____    ______ ____
ROOT
ATOM      1  S   UNL     1       8.779  -3.997  25.217  0.00  0.00    +0.000 S 
ATOM      2  O   UNL     1       9.918  -4.808  24.863  0.00  0.00    +0.000 OA
ATOM      3  O   UNL     1       8.579  -3.800  26.624  0.00  0.00    +0.000 OA
ENDROOT
BRANCH   1   4
ATOM      4  N   UNL     1       8.835  -2.590  24.447  0.00  0.00    +0.000 NA
ATOM      5  C   UNL     1       8.771  -1.436  25.233  0.00  0.00    +0.000 C 
ATOM      6  C   UNL     1       8.194  -0.284  24.405  0.00  0.00    +0.000 C 
ATOM      7  N   UNL     1       8.550  -0.480  23.007  0.00  0.00    +0.000 N 
ATOM      8  C   UNL     1       9.727  -1.239  22.644  0.00  0.00    +0.000 C 
ATOM      9  C   UNL     1       9.844  -2.508  23.461  0.00  0.00    +0.000 C 
ATOM     10  C   UNL     1       8.003   0.354  22.086  0.00  0.00    +0.000 C 
ATOM     11  O   UNL     1       7.238  -0.057  21.247  0.00  0.00    +0.000 OA
BRANCH  10  12
ATOM     12  C   UNL     1       8.415   1.802  22.174  0.00  0.00    +0.000 C 
ATOM     13 CL   UNL     1      10.187   1.939  22.029  0.00  0.00    +0.000 Cl
ENDBRANCH  10  12
ENDBRANCH   1   4
BRANCH   1  19
ATOM     14  F   UNL     1       5.690  -1.918  23.446  0.00  0.00    +0.000 F 
ATOM     15  C   UNL     1       5.362  -3.223  23.512  0.00  0.00    +0.000 A 
ATOM     16  C   UNL     1       5.844  -3.661  21.996  0.00  0.00    +0.000 A 
ATOM     17  C   UNL     1       6.688  -4.911  22.112  0.00  0.00    +0.000 A 
ATOM     18  C   UNL     1       7.735  -5.295  23.164  0.00  0.00    +0.000 A 
ATOM     19  C   UNL     1       7.306  -4.876  24.610  0.00  0.00    +0.000 A 
ATOM     20  C   UNL     1       6.257  -3.830  24.510  0.00  0.00    +0.000 A 
ENDBRANCH   1  19
TORSDOF 3
ENDMDL
MODEL 7
REMARK VINA RESULT:      -6.2      4.004      7.004
REMARK  Name = 
REMARK  3 active torsions:
REMARK  status: ('A' for Active; 'I' for Inactive)
REMARK    1  A    between atoms: C_6  and  S_8
REMARK    2  A    between atoms: S_8  and  N_11
REMARK    3  A    between atoms: C_17  and  C_19
REMARK                            x       y       z     vdW  Elec       q    Type
REMARK                         _______ _______ _______ _____ _____    ______ ____
ROOT
ATOM      1  S   UNL     1       8.060  -4.293  24.501  0.00  0.00    +0.000 S 
ATOM      2  O   UNL     1       8.137  -5.303  23.474  0.00  0.00    +0.000 OA
ATOM      3  O   UNL     1       8.881  -4.525  25.654  0.00  0.00    +0.000 OA
ENDROOT
BRANCH   1   4
ATOM      4  N   UNL     1       8.349  -2.842  23.879  0.00  0.00    +0.000 NA
ATOM      5  C   UNL     1       7.675  -1.762  24.455  0.00  0.00    +0.000 C 
ATOM      6  C   UNL     1       7.527  -0.641  23.422  0.00  0.00    +0.000 C 
ATOM      7  N   UNL     1       8.652  -0.695  22.499  0.00  0.00    +0.000 N 
ATOM      8  C   UNL     1       9.915  -1.268  22.908  0.00  0.00    +0.000 C 
ATOM      9  C   UNL     1       9.718  -2.564  23.666  0.00  0.00    +0.000 C 
ATOM     10  C   UNL     1       8.627   0.122  21.415  0.00  0.00    +0.000 C 
ATOM     11  O   UNL     1       8.560  -0.326  20.296  0.00  0.00    +0.000 OA
BRANCH  10  12
ATOM     12  C   UNL     1       8.697   1.602  21.696  0.00  0.00    +0.000 C 
ATOM     13 CL   UNL     1      10.375   2.069  22.078  0.00  0.00    +0.000 Cl
ENDBRANCH  10  12
ENDBRANCH   1   4
BRANCH   1  19
ATOM     14  F   UNL     1       5.077  -6.064  22.273  0.00  0.00    +0.000 F 
ATOM     15  C   UNL     1       4.533  -5.500  23.369  0.00  0.00    +0.000 A 
ATOM     16  C   UNL     1       4.512  -6.840  24.333  0.00  0.00    +0.000 A 
ATOM     17  C   UNL     1       5.100  -6.464  25.675  0.00  0.00    +0.000 A 
ATOM     18  C   UNL     1       6.291  -5.555  26.006  0.00  0.00    +0.000 A 
ATOM     19  C   UNL     1       6.339  -4.284  25.093  0.00  0.00    +0.000 A 
ATOM     20  C   UNL     1       5.522  -4.539  23.880  0.00  0.00    +0.000 A 
ENDBRANCH   1  19
TORSDOF 3
ENDMDL
MODEL 8
REMARK VINA RESULT:      -6.2      2.361      2.645
REMARK  Name = 
REMARK  3 active torsions:
REMARK  status: ('A' for Active; 'I' for Inactive)
REMARK    1  A    between atoms: C_6  and  S_8
REMARK    2  A    between atoms: S_8  and  N_11
REMARK    3  A    between atoms: C_17  and  C_19
REMARK                            x       y       z     vdW  Elec       q    Type
REMARK                         _______ _______ _______ _____ _____    ______ ____
ROOT
ATOM      1  S   UNL     1       8.985  -1.947  23.151  0.00  0.00    +0.000 S 
ATOM      2  O   UNL     1      10.167  -1.961  23.978  0.00  0.00    +0.000 OA
ATOM      3  O   UNL     1       9.208  -2.196  21.756  0.00  0.00    +0.000 OA
ENDROOT
BRANCH   1   4
ATOM      4  N   UNL     1       7.882  -2.952  23.739  0.00  0.00    +0.000 NA
ATOM      5  C   UNL     1       6.643  -2.401  24.080  0.00  0.00    +0.000 C 
ATOM      6  C   UNL     1       5.984  -3.257  25.166  0.00  0.00    +0.000 C 
ATOM      7  N   UNL     1       6.415  -4.639  25.008  0.00  0.00    +0.000 N 
ATOM      8  C   UNL     1       6.835  -5.137  23.718  0.00  0.00    +0.000 C 
ATOM      9  C   UNL     1       7.747  -4.157  23.012  0.00  0.00    +0.000 C 
ATOM     10  C   UNL     1       6.061  -5.531  25.969  0.00  0.00    +0.000 C 
ATOM     11  O   UNL     1       6.892  -6.061  26.665  0.00  0.00    +0.000 OA
BRANCH  10  12
ATOM     12  C   UNL     1       4.586  -5.817  26.099  0.00  0.00    +0.000 C 
ATOM     13 CL   UNL     1       4.150  -7.226  25.098  0.00  0.00    +0.000 Cl
ENDBRANCH  10  12
ENDBRANCH   1   4
BRANCH   1  19
ATOM     14  F   UNL     1      11.321   1.194  24.445  0.00  0.00    +0.000 F 
ATOM     15  C   UNL     1      10.070   1.640  24.216  0.00  0.00    +0.000 A 
ATOM     16  C   UNL     1      10.300   2.194  22.679  0.00  0.00    +0.000 A 
ATOM     17  C   UNL     1       9.179   1.662  21.813  0.00  0.00    +0.000 A 
ATOM     18  C   UNL     1       8.506   0.284  21.816  0.00  0.00    +0.000 A 
ATOM     19  C   UNL     1       8.291  -0.269  23.265  0.00  0.00    +0.000 A 
ATOM     20  C   UNL     1       9.201   0.454  24.189  0.00  0.00    +0.000 A 
ENDBRANCH   1  19
TORSDOF 3
ENDMDL
MODEL 9
REMARK VINA RESULT:      -6.1      4.123      6.695
REMARK  Name = 
REMARK  3 active torsions:
REMARK  status: ('A' for Active; 'I' for Inactive)
REMARK    1  A    between atoms: C_6  and  S_8
REMARK    2  A    between atoms: S_8  and  N_11
REMARK    3  A    between atoms: C_17  and  C_19
REMARK                            x       y       z     vdW  Elec       q    Type
REMARK                         _______ _______ _______ _____ _____    ______ ____
ROOT
ATOM      1  S   UNL     1       6.735  -3.799  25.897  0.00  0.00    +0.000 S 
ATOM      2  O   UNL     1       7.588  -3.933  27.052  0.00  0.00    +0.000 OA
ATOM      3  O   UNL     1       5.352  -3.543  26.180  0.00  0.00    +0.000 OA
ENDROOT
BRANCH   1   4
ATOM      4  N   UNL     1       7.324  -2.695  24.893  0.00  0.00    +0.000 NA
ATOM      5  C   UNL     1       6.412  -2.061  24.045  0.00  0.00    +0.000 C 
ATOM      6  C   UNL     1       7.137  -1.576  22.785  0.00  0.00    +0.000 C 
ATOM      7  N   UNL     1       8.518  -1.264  23.122  0.00  0.00    +0.000 N 
ATOM      8  C   UNL     1       8.881  -0.887  24.471  0.00  0.00    +0.000 C 
ATOM      9  C   UNL     1       8.217  -1.779  25.497  0.00  0.00    +0.000 C 
ATOM     10  C   UNL     1       9.370  -0.963  22.109  0.00  0.00    +0.000 C 
ATOM     11  O   UNL     1      10.306  -1.678  21.846  0.00  0.00    +0.000 OA
BRANCH  10  12
ATOM     12  C   UNL     1       9.079   0.308  21.353  0.00  0.00    +0.000 C 
ATOM     13 CL   UNL     1      10.113   1.628  21.961  0.00  0.00    +0.000 Cl
ENDBRANCH  10  12
ENDBRANCH   1   4
BRANCH   1  19
ATOM     14  F   UNL     1       4.114  -4.577  22.810  0.00  0.00    +0.000 F 
ATOM     15  C   UNL     1       4.878  -5.667  23.025  0.00  0.00    +0.000 A 
ATOM     16  C   UNL     1       6.029  -5.373  21.880  0.00  0.00    +0.000 A 
ATOM     17  C   UNL     1       7.388  -5.545  22.523  0.00  0.00    +0.000 A 
ATOM     18  C   UNL     1       7.872  -5.138  23.920  0.00  0.00    +0.000 A 
ATOM     19  C   UNL     1       6.789  -5.395  25.022  0.00  0.00    +0.000 A 
ATOM     20  C   UNL     1       5.462  -5.510  24.366  0.00  0.00    +0.000 A 
ENDBRANCH   1  19
TORSDOF 3
ENDMDL
