MODEL 1
REMARK VINA RESULT:      -5.3      0.000      0.000
REMARK  Name = 
REMARK  3 active torsions:
REMARK  status: ('A' for Active; 'I' for Inactive)
REMARK    1  A    between atoms: C_2  and  N_3
REMARK    2  A    between atoms: C_2  and  C_8
REMARK    3  A    between atoms: C_4  and  C_6
REMARK                            x       y       z     vdW  Elec       q    Type
REMARK                         _______ _______ _______ _____ _____    ______ ____
ROOT
ATOM      1  C   UNL     1       7.230  -2.481  23.697  0.00  0.00    +0.000 C 
ATOM      2  C   UNL     1       8.640  -2.798  23.798  0.00  0.00    +0.000 C 
ENDROOT
BRANCH   2   3
ATOM      3  C   UNL     1       9.684  -1.984  23.503  0.00  0.00    +0.000 A 
ATOM      4  C   UNL     1       9.845  -0.785  24.637  0.00  0.00    +0.000 A 
ATOM      5  C   UNL     1      10.190   0.499  23.935  0.00  0.00    +0.000 A 
ATOM      6  C   UNL     1       9.834   1.047  22.548  0.00  0.00    +0.000 A 
ATOM      7  C   UNL     1       9.709  -0.158  21.528  0.00  0.00    +0.000 A 
ATOM      8 CL   UNL     1       8.368   0.232  20.536  0.00  0.00    +0.000 Cl
ATOM      9  C   UNL     1       9.609  -1.385  22.143  0.00  0.00    +0.000 A 
ENDBRANCH   2   3
BRANCH   2  10
ATOM     10  N   UNL     1       8.920  -4.222  24.043  0.00  0.00    +0.000 NA
ATOM     11  C   UNL     1       9.379  -4.670  25.227  0.00  0.00    +0.000 C 
ATOM     12  O   UNL     1      10.412  -5.306  25.294  0.00  0.00    +0.000 OA
BRANCH  11  13
ATOM     13  C   UNL     1       8.767  -4.033  26.457  0.00  0.00    +0.000 C 
ATOM     14 CL   UNL     1       7.494  -5.093  27.114  0.00  0.00    +0.000 Cl
ENDBRANCH  11  13
ENDBRANCH   2  10
TORSDOF 3
ENDMDL
MODEL 2
REMARK VINA RESULT:      -5.2      2.052      3.084
REMARK  Name = 
REMARK  3 active torsions:
REMARK  status: ('A' for Active; 'I' for Inactive)
REMARK    1  A    between atoms: C_2  and  N_3
REMARK    2  A    between atoms: C_2  and  C_8
REMARK    3  A    between atoms: C_4  and  C_6
REMARK                            x       y       z     vdW  Elec       q    Type
REMARK                         _______ _______ _______ _____ _____    ______ ____
ROOT
ATOM      1  C   UNL     1      10.666   0.237  24.517  0.00  0.00    +0.000 C 
ATOM      2  C   UNL     1      10.361  -0.065  23.132  0.00  0.00    +0.000 C 
ENDROOT
BRANCH   2   3
ATOM      3  C   UNL     1       9.942   0.804  22.180  0.00  0.00    +0.000 A 
ATOM      4  C   UNL     1       9.203   2.125  22.859  0.00  0.00    +0.000 A 
ATOM      5  C   UNL     1       8.006   2.488  22.027  0.00  0.00    +0.000 A 
ATOM      6  C   UNL     1       7.043   1.650  21.177  0.00  0.00    +0.000 A 
ATOM      7  C   UNL     1       7.828   0.420  20.561  0.00  0.00    +0.000 A 
ATOM      8 CL   UNL     1       6.741  -0.900  20.663  0.00  0.00    +0.000 Cl
ATOM      9  C   UNL     1       9.043   0.190  21.165  0.00  0.00    +0.000 A 
ENDBRANCH   2   3
BRANCH   2  10
ATOM     10  N   UNL     1      10.308  -1.505  22.829  0.00  0.00    +0.000 NA
ATOM     11  C   UNL     1       9.609  -2.372  23.587  0.00  0.00    +0.000 C 
ATOM     12  O   UNL     1      10.151  -3.338  24.087  0.00  0.00    +0.000 OA
BRANCH  11  13
ATOM     13  C   UNL     1       8.262  -1.886  24.076  0.00  0.00    +0.000 C 
ATOM     14 CL   UNL     1       8.158  -2.075  25.844  0.00  0.00    +0.000 Cl
ENDBRANCH  11  13
ENDBRANCH   2  10
TORSDOF 3
ENDMDL
MODEL 3
REMARK VINA RESULT:      -5.0      1.573      1.613
REMARK  Name = 
REMARK  3 active torsions:
REMARK  status: ('A' for Active; 'I' for Inactive)
REMARK    1  A    between atoms: C_2  and  N_3
REMARK    2  A    between atoms: C_2  and  C_8
REMARK    3  A    between atoms: C_4  and  C_6
REMARK                            x       y       z     vdW  Elec       q    Type
REMARK                         _______ _______ _______ _____ _____    ______ ____
ROOT
ATOM      1  C   UNL     1       6.799  -1.659  24.350  0.00  0.00    +0.000 C 
ATOM      2  C   UNL     1       7.744  -2.466  23.604  0.00  0.00    +0.000 C 
ENDROOT
BRANCH   2   3
ATOM      3  C   UNL     1       8.920  -2.058  23.066  0.00  0.00    +0.000 A 
ATOM      4  C   UNL     1       9.784  -1.139  24.143  0.00  0.00    +0.000 A 
ATOM      5  C   UNL     1      10.418   0.004  23.400  0.00  0.00    +0.000 A 
ATOM      6  C   UNL     1       9.987   0.800  22.163  0.00  0.00    +0.000 A 
ATOM      7  C   UNL     1       9.180  -0.151  21.187  0.00  0.00    +0.000 A 
ATOM      8 CL   UNL     1       7.898   0.812  20.583  0.00  0.00    +0.000 Cl
ATOM      9  C   UNL     1       8.765  -1.320  21.783  0.00  0.00    +0.000 A 
ENDBRANCH   2   3
BRANCH   2  10
ATOM     10  N   UNL     1       7.237  -3.797  23.235  0.00  0.00    +0.000 NA
ATOM     11  C   UNL     1       7.762  -4.930  23.739  0.00  0.00    +0.000 C 
ATOM     12  O   UNL     1       8.190  -5.799  23.005  0.00  0.00    +0.000 OA
BRANCH  11  13
ATOM     13  C   UNL     1       8.125  -4.894  25.208  0.00  0.00    +0.000 C 
ATOM     14 CL   UNL     1       9.893  -5.009  25.394  0.00  0.00    +0.000 Cl
ENDBRANCH  11  13
ENDBRANCH   2  10
TORSDOF 3
ENDMDL
MODEL 4
REMARK VINA RESULT:      -4.9      1.956      2.118
REMARK  Name = 
REMARK  3 active torsions:
REMARK  status: ('A' for Active; 'I' for Inactive)
REMARK    1  A    between atoms: C_2  and  N_3
REMARK    2  A    between atoms: C_2  and  C_8
REMARK    3  A    between atoms: C_4  and  C_6
REMARK                            x       y       z     vdW  Elec       q    Type
REMARK                         _______ _______ _______ _____ _____    ______ ____
ROOT
ATOM      1  C   UNL     1       7.694  -1.769  24.693  0.00  0.00    +0.000 C 
ATOM      2  C   UNL     1       8.997  -2.232  24.258  0.00  0.00    +0.000 C 
ENDROOT
BRANCH   2   3
ATOM      3  C   UNL     1       9.965  -1.500  23.655  0.00  0.00    +0.000 A 
ATOM      4  C   UNL     1      10.293  -0.119  24.515  0.00  0.00    +0.000 A 
ATOM      5  C   UNL     1      10.498   1.013  23.547  0.00  0.00    +0.000 A 
ATOM      6  C   UNL     1       9.911   1.309  22.162  0.00  0.00    +0.000 A 
ATOM      7  C   UNL     1       9.638  -0.057  21.409  0.00  0.00    +0.000 A 
ATOM      8 CL   UNL     1       8.146   0.169  20.597  0.00  0.00    +0.000 Cl
ATOM      9  C   UNL     1       9.659  -1.153  22.241  0.00  0.00    +0.000 A 
ENDBRANCH   2   3
BRANCH   2  10
ATOM     10  N   UNL     1       9.158  -3.695  24.300  0.00  0.00    +0.000 NA
ATOM     11  C   UNL     1       8.200  -4.535  23.863  0.00  0.00    +0.000 C 
ATOM     12  O   UNL     1       7.743  -5.392  24.592  0.00  0.00    +0.000 OA
BRANCH  11  13
ATOM     13  C   UNL     1       7.485  -4.120  22.595  0.00  0.00    +0.000 C 
ATOM     14 CL   UNL     1       7.132  -5.556  21.603  0.00  0.00    +0.000 Cl
ENDBRANCH  11  13
ENDBRANCH   2  10
TORSDOF 3
ENDMDL
MODEL 5
REMARK VINA RESULT:      -4.8      2.816      3.503
REMARK  Name = 
REMARK  3 active torsions:
REMARK  status: ('A' for Active; 'I' for Inactive)
REMARK    1  A    between atoms: C_2  and  N_3
REMARK    2  A    between atoms: C_2  and  C_8
REMARK    3  A    between atoms: C_4  and  C_6
REMARK                            x       y       z     vdW  Elec       q    Type
REMARK                         _______ _______ _______ _____ _____    ______ ____
ROOT
ATOM      1  C   UNL     1       9.440  -2.940  23.948  0.00  0.00    +0.000 C 
ATOM      2  C   UNL     1       8.169  -2.330  23.612  0.00  0.00    +0.000 C 
ENDROOT
BRANCH   2   3
ATOM      3  C   UNL     1       7.965  -1.078  23.133  0.00  0.00    +0.000 A 
ATOM      4  C   UNL     1       8.301  -0.996  21.511  0.00  0.00    +0.000 A 
ATOM      5  C   UNL     1       9.010   0.299  21.231  0.00  0.00    +0.000 A 
ATOM      6  C   UNL     1       9.959   1.162  22.071  0.00  0.00    +0.000 A 
ATOM      7  C   UNL     1       9.564   1.034  23.599  0.00  0.00    +0.000 A 
ATOM      8 CL   UNL     1      11.053   0.969  24.443  0.00  0.00    +0.000 Cl
ATOM      9  C   UNL     1       8.729  -0.028  23.860  0.00  0.00    +0.000 A 
ENDBRANCH   2   3
BRANCH   2  10
ATOM     10  N   UNL     1       6.997  -3.104  24.051  0.00  0.00    +0.000 NA
ATOM     11  C   UNL     1       6.127  -3.647  23.177  0.00  0.00    +0.000 C 
ATOM     12  O   UNL     1       4.942  -3.384  23.234  0.00  0.00    +0.000 OA
BRANCH  11  13
ATOM     13  C   UNL     1       6.735  -4.268  21.939  0.00  0.00    +0.000 C 
ATOM     14 CL   UNL     1       7.383  -5.881  22.329  0.00  0.00    +0.000 Cl
ENDBRANCH  11  13
ENDBRANCH   2  10
TORSDOF 3
ENDMDL
MODEL 6
REMARK VINA RESULT:      -4.8      2.036      2.233
REMARK  Name = 
REMARK  3 active torsions:
REMARK  status: ('A' for Active; 'I' for Inactive)
REMARK    1  A    between atoms: C_2  and  N_3
REMARK    2  A    between atoms: C_2  and  C_8
REMARK    3  A    between atoms: C_4  and  C_6
REMARK                            x       y       z     vdW  Elec       q    Type
REMARK                         _______ _______ _______ _____ _____    ______ ____
ROOT
ATOM      1  C   UNL     1       6.027  -2.882  21.889  0.00  0.00    +0.000 C 
ATOM      2  C   UNL     1       7.295  -2.571  22.518  0.00  0.00    +0.000 C 
ENDROOT
BRANCH   2   3
ATOM      3  C   UNL     1       7.884  -1.353  22.611  0.00  0.00    +0.000 A 
ATOM      4  C   UNL     1       6.896  -0.269  23.385  0.00  0.00    +0.000 A 
ATOM      5  C   UNL     1       6.997   1.059  22.687  0.00  0.00    +0.000 A 
ATOM      6  C   UNL     1       7.257   1.442  21.226  0.00  0.00    +0.000 A 
ATOM      7  C   UNL     1       8.212   0.364  20.566  0.00  0.00    +0.000 A 
ATOM      8 CL   UNL     1       7.600   0.132  18.983  0.00  0.00    +0.000 Cl
ATOM      9  C   UNL     1       8.315  -0.796  21.300  0.00  0.00    +0.000 A 
ENDBRANCH   2   3
BRANCH   2  10
ATOM     10  N   UNL     1       8.088  -3.754  22.890  0.00  0.00    +0.000 NA
ATOM     11  C   UNL     1       8.462  -3.995  24.162  0.00  0.00    +0.000 C 
ATOM     12  O   UNL     1       9.634  -4.144  24.447  0.00  0.00    +0.000 OA
BRANCH  11  13
ATOM     13  C   UNL     1       7.426  -3.699  25.224  0.00  0.00    +0.000 C 
ATOM     14 CL   UNL     1       6.111  -4.897  25.134  0.00  0.00    +0.000 Cl
ENDBRANCH  11  13
ENDBRANCH   2  10
TORSDOF 3
ENDMDL
MODEL 7
REMARK VINA RESULT:      -4.7      1.956      2.540
REMARK  Name = 
REMARK  3 active torsions:
REMARK  status: ('A' for Active; 'I' for Inactive)
REMARK    1  A    between atoms: C_2  and  N_3
REMARK    2  A    between atoms: C_2  and  C_8
REMARK    3  A    between atoms: C_4  and  C_6
REMARK                            x       y       z     vdW  Elec       q    Type
REMARK                         _______ _______ _______ _____ _____    ______ ____
ROOT
ATOM      1  C   UNL     1       5.832  -2.576  23.588  0.00  0.00    +0.000 C 
ATOM      2  C   UNL     1       7.104  -1.988  23.217  0.00  0.00    +0.000 C 
ENDROOT
BRANCH   2   3
ATOM      3  C   UNL     1       7.325  -0.718  22.800  0.00  0.00    +0.000 A 
ATOM      4  C   UNL     1       7.996  -0.695  21.282  0.00  0.00    +0.000 A 
ATOM      5  C   UNL     1       9.051   0.374  21.238  0.00  0.00    +0.000 A 
ATOM      6  C   UNL     1       9.995   0.941  22.305  0.00  0.00    +0.000 A 
ATOM      7  C   UNL     1       9.277   0.891  23.716  0.00  0.00    +0.000 A 
ATOM      8 CL   UNL     1      10.497   0.421  24.822  0.00  0.00    +0.000 Cl
ATOM      9  C   UNL     1       8.165   0.080  23.734  0.00  0.00    +0.000 A 
ENDBRANCH   2   3
BRANCH   2  10
ATOM     10  N   UNL     1       8.201  -2.961  23.089  0.00  0.00    +0.000 NA
ATOM     11  C   UNL     1       9.134  -3.120  24.048  0.00  0.00    +0.000 C 
ATOM     12  O   UNL     1      10.316  -2.998  23.793  0.00  0.00    +0.000 OA
BRANCH  11  13
ATOM     13  C   UNL     1       8.629  -3.078  25.474  0.00  0.00    +0.000 C 
ATOM     14 CL   UNL     1       7.975  -4.671  25.930  0.00  0.00    +0.000 Cl
ENDBRANCH  11  13
ENDBRANCH   2  10
TORSDOF 3
ENDMDL
MODEL 8
REMARK VINA RESULT:      -4.6      2.483      5.260
REMARK  Name = 
REMARK  3 active torsions:
REMARK  status: ('A' for Active; 'I' for Inactive)
REMARK    1  A    between atoms: C_2  and  N_3
REMARK    2  A    between atoms: C_2  and  C_8
REMARK    3  A    between atoms: C_4  and  C_6
REMARK                            x       y       z     vdW  Elec       q    Type
REMARK                         _______ _______ _______ _____ _____    ______ ____
ROOT
ATOM      1  C   UNL     1       7.327  -0.889  25.500  0.00  0.00    +0.000 C 
ATOM      2  C   UNL     1       8.620  -1.083  24.873  0.00  0.00    +0.000 C 
ENDROOT
BRANCH   2   3
ATOM      3  C   UNL     1       8.984  -2.096  24.049  0.00  0.00    +0.000 A 
ATOM      4  C   UNL     1       7.939  -2.229  22.767  0.00  0.00    +0.000 A 
ATOM      5  C   UNL     1       7.693  -3.687  22.496  0.00  0.00    +0.000 A 
ATOM      6  C   UNL     1       7.662  -4.918  23.408  0.00  0.00    +0.000 A 
ATOM      7  C   UNL     1       8.691  -4.714  24.595  0.00  0.00    +0.000 A 
ATOM      8 CL   UNL     1       7.906  -5.344  25.981  0.00  0.00    +0.000 Cl
ATOM      9  C   UNL     1       9.109  -3.410  24.736  0.00  0.00    +0.000 A 
ENDBRANCH   2   3
BRANCH   2  10
ATOM     10  N   UNL     1       9.673  -0.188  25.379  0.00  0.00    +0.000 NA
ATOM     11  C   UNL     1      10.279   0.722  24.593  0.00  0.00    +0.000 C 
ATOM     12  O   UNL     1      11.487   0.727  24.462  0.00  0.00    +0.000 OA
BRANCH  11  13
ATOM     13  C   UNL     1       9.382   1.460  23.622  0.00  0.00    +0.000 C 
ATOM     14 CL   UNL     1       9.922   1.157  21.952  0.00  0.00    +0.000 Cl
ENDBRANCH  11  13
ENDBRANCH   2  10
TORSDOF 3
ENDMDL
MODEL 9
REMARK VINA RESULT:      -4.5      2.803      5.724
REMARK  Name = 
REMARK  3 active torsions:
REMARK  status: ('A' for Active; 'I' for Inactive)
REMARK    1  A    between atoms: C_2  and  N_3
REMARK    2  A    between atoms: C_2  and  C_8
REMARK    3  A    between atoms: C_4  and  C_6
REMARK                            x       y       z     vdW  Elec       q    Type
REMARK                         _______ _______ _______ _____ _____    ______ ____
ROOT
ATOM      1  C   UNL     1       6.374  -2.183  21.578  0.00  0.00    +0.000 C 
ATOM      2  C   UNL     1       7.231  -2.707  22.623  0.00  0.00    +0.000 C 
ENDROOT
BRANCH   2   3
ATOM      3  C   UNL     1       7.368  -4.004  22.993  0.00  0.00    +0.000 A 
ATOM      4  C   UNL     1       6.957  -5.026  21.753  0.00  0.00    +0.000 A 
ATOM      5  C   UNL     1       6.190  -6.187  22.321  0.00  0.00    +0.000 A 
ATOM      6  C   UNL     1       5.249  -6.317  23.524  0.00  0.00    +0.000 A 
ATOM      7  C   UNL     1       5.716  -5.318  24.661  0.00  0.00    +0.000 A 
ATOM      8 CL   UNL     1       4.270  -4.676  25.315  0.00  0.00    +0.000 Cl
ATOM      9  C   UNL     1       6.600  -4.361  24.217  0.00  0.00    +0.000 A 
ENDBRANCH   2   3
BRANCH   2  10
ATOM     10  N   UNL     1       7.830  -1.673  23.484  0.00  0.00    +0.000 NA
ATOM     11  C   UNL     1       9.154  -1.426  23.492  0.00  0.00    +0.000 C 
ATOM     12  O   UNL     1       9.791  -1.483  24.525  0.00  0.00    +0.000 OA
BRANCH  11  13
ATOM     13  C   UNL     1       9.839  -1.451  22.143  0.00  0.00    +0.000 C 
ATOM     14 CL   UNL     1       9.350  -0.028  21.191  0.00  0.00    +0.000 Cl
ENDBRANCH  11  13
ENDBRANCH   2  10
TORSDOF 3
ENDMDL
