MODEL 1
REMARK VINA RESULT:      -6.7      0.000      0.000
REMARK  Name = 
REMARK  3 active torsions:
REMARK  status: ('A' for Active; 'I' for Inactive)
REMARK    1  A    between atoms: N_4  and  C_5
REMARK    2  A    between atoms: C_5  and  C_6
REMARK    3  A    between atoms: C_6  and  C_7
REMARK                            x       y       z     vdW  Elec       q    Type
REMARK                         _______ _______ _______ _____ _____    ______ ____
ROOT
ATOM      1  C   UNL     1       9.686   0.288  21.579  0.00  0.00    +0.000 A 
ATOM      2  C   UNL     1       9.262   1.652  22.033  0.00  0.00    +0.000 A 
ATOM      3  N   UNL     1       9.629   1.787  23.441  0.00  0.00    +0.000 NA
ATOM      4  C   UNL     1      10.351   0.718  23.869  0.00  0.00    +0.000 A 
ATOM      5  C   UNL     1       9.631   0.193  25.256  0.00  0.00    +0.000 A 
ATOM      6  C   UNL     1       9.305  -1.252  25.103  0.00  0.00    +0.000 A 
ATOM      7  C   UNL     1       9.545  -2.327  24.148  0.00  0.00    +0.000 A 
ATOM      8  F   UNL     1       8.425  -3.022  23.971  0.00  0.00    +0.000 F 
ATOM      9  C   UNL     1      10.064  -1.807  22.796  0.00  0.00    +0.000 A 
ATOM     10  C   UNL     1      10.312  -0.342  22.791  0.00  0.00    +0.000 A 
ENDROOT
BRANCH   1  11
ATOM     11  C   UNL     1       8.662  -0.496  20.736  0.00  0.00    +0.000 C 
BRANCH  11  12
ATOM     12  C   UNL     1       7.665   0.585  20.231  0.00  0.00    +0.000 C 
BRANCH  12  16
ATOM     13  C   UNL     1       5.203   1.245  18.590  0.00  0.00    +0.000 C 
ATOM     14  C   UNL     1       6.215   0.149  18.344  0.00  0.00    +0.000 C 
ATOM     15  O   UNL     1       5.957  -0.817  17.662  0.00  0.00    +0.000 OA
ATOM     16  N   UNL     1       7.459   0.377  18.808  0.00  0.00    +0.000 NA
ENDBRANCH  12  16
ENDBRANCH  11  12
ENDBRANCH   1  11
TORSDOF 3
ENDMDL
MODEL 2
REMARK VINA RESULT:      -6.1      2.417      3.475
REMARK  Name = 
REMARK  3 active torsions:
REMARK  status: ('A' for Active; 'I' for Inactive)
REMARK    1  A    between atoms: N_4  and  C_5
REMARK    2  A    between atoms: C_5  and  C_6
REMARK    3  A    between atoms: C_6  and  C_7
REMARK                            x       y       z     vdW  Elec       q    Type
REMARK                         _______ _______ _______ _____ _____    ______ ____
ROOT
ATOM      1  C   UNL     1       6.775  -1.488  21.871  0.00  0.00    +0.000 A 
ATOM      2  C   UNL     1       5.960  -2.452  21.063  0.00  0.00    +0.000 A 
ATOM      3  N   UNL     1       5.644  -3.594  21.919  0.00  0.00    +0.000 NA
ATOM      4  C   UNL     1       6.053  -3.383  23.198  0.00  0.00    +0.000 A 
ATOM      5  C   UNL     1       6.924  -4.714  23.635  0.00  0.00    +0.000 A 
ATOM      6  C   UNL     1       8.266  -4.268  24.105  0.00  0.00    +0.000 A 
ATOM      7  C   UNL     1       8.959  -3.018  24.390  0.00  0.00    +0.000 A 
ATOM      8  F   UNL     1      10.192  -3.071  23.893  0.00  0.00    +0.000 F 
ATOM      9  C   UNL     1       8.216  -1.792  23.832  0.00  0.00    +0.000 A 
ATOM     10  C   UNL     1       6.904  -2.133  23.222  0.00  0.00    +0.000 A 
ENDROOT
BRANCH   1  11
ATOM     11  C   UNL     1       8.012  -0.893  21.171  0.00  0.00    +0.000 C 
BRANCH  11  12
ATOM     12  C   UNL     1       7.519   0.465  20.597  0.00  0.00    +0.000 C 
BRANCH  12  16
ATOM     13  C   UNL     1       5.260   1.277  18.747  0.00  0.00    +0.000 C 
ATOM     14  C   UNL     1       6.275   0.175  18.542  0.00  0.00    +0.000 C 
ATOM     15  O   UNL     1       6.079  -0.741  17.777  0.00  0.00    +0.000 OA
ATOM     16  N   UNL     1       7.466   0.348  19.150  0.00  0.00    +0.000 NA
ENDBRANCH  12  16
ENDBRANCH  11  12
ENDBRANCH   1  11
TORSDOF 3
ENDMDL
MODEL 3
REMARK VINA RESULT:      -6.1      3.605      5.514
REMARK  Name = 
REMARK  3 active torsions:
REMARK  status: ('A' for Active; 'I' for Inactive)
REMARK    1  A    between atoms: N_4  and  C_5
REMARK    2  A    between atoms: C_5  and  C_6
REMARK    3  A    between atoms: C_6  and  C_7
REMARK                            x       y       z     vdW  Elec       q    Type
REMARK                         _______ _______ _______ _____ _____    ______ ____
ROOT
ATOM      1  C   UNL     1       7.928  -2.351  22.282  0.00  0.00    +0.000 A 
ATOM      2  C   UNL     1       6.834  -1.625  21.560  0.00  0.00    +0.000 A 
ATOM      3  N   UNL     1       7.431  -0.471  20.890  0.00  0.00    +0.000 NA
ATOM      4  C   UNL     1       8.786  -0.480  21.003  0.00  0.00    +0.000 A 
ATOM      5  C   UNL     1       9.218   1.015  21.547  0.00  0.00    +0.000 A 
ATOM      6  C   UNL     1      10.032   0.853  22.784  0.00  0.00    +0.000 A 
ATOM      7  C   UNL     1      10.635  -0.227  23.555  0.00  0.00    +0.000 A 
ATOM      8  F   UNL     1      10.423  -0.018  24.852  0.00  0.00    +0.000 F 
ATOM      9  C   UNL     1      10.100  -1.611  23.149  0.00  0.00    +0.000 A 
ATOM     10  C   UNL     1       9.171  -1.560  21.989  0.00  0.00    +0.000 A 
ENDROOT
BRANCH   1  11
ATOM     11  C   UNL     1       7.611  -2.796  23.722  0.00  0.00    +0.000 C 
BRANCH  11  12
ATOM     12  C   UNL     1       7.152  -4.275  23.581  0.00  0.00    +0.000 C 
BRANCH  12  16
ATOM     13  C   UNL     1       8.237  -5.350  26.199  0.00  0.00    +0.000 C 
ATOM     14  C   UNL     1       9.006  -5.039  24.935  0.00  0.00    +0.000 C 
ATOM     15  O   UNL     1      10.201  -4.847  24.945  0.00  0.00    +0.000 OA
ATOM     16  N   UNL     1       8.311  -5.126  23.784  0.00  0.00    +0.000 NA
ENDBRANCH  12  16
ENDBRANCH  11  12
ENDBRANCH   1  11
TORSDOF 3
ENDMDL
MODEL 4
REMARK VINA RESULT:      -6.0      3.848      6.058
REMARK  Name = 
REMARK  3 active torsions:
REMARK  status: ('A' for Active; 'I' for Inactive)
REMARK    1  A    between atoms: N_4  and  C_5
REMARK    2  A    between atoms: C_5  and  C_6
REMARK    3  A    between atoms: C_6  and  C_7
REMARK                            x       y       z     vdW  Elec       q    Type
REMARK                         _______ _______ _______ _____ _____    ______ ____
ROOT
ATOM      1  C   UNL     1       9.524  -1.798  24.130  0.00  0.00    +0.000 A 
ATOM      2  C   UNL     1       8.652  -2.310  23.023  0.00  0.00    +0.000 A 
ATOM      3  N   UNL     1       8.912  -1.495  21.839  0.00  0.00    +0.000 NA
ATOM      4  C   UNL     1       9.940  -0.630  22.048  0.00  0.00    +0.000 A 
ATOM      5  C   UNL     1       9.400   0.858  21.587  0.00  0.00    +0.000 A 
ATOM      6  C   UNL     1       9.585   1.802  22.724  0.00  0.00    +0.000 A 
ATOM      7  C   UNL     1      10.199   1.807  24.046  0.00  0.00    +0.000 A 
ATOM      8  F   UNL     1       9.384   2.402  24.912  0.00  0.00    +0.000 F 
ATOM      9  C   UNL     1      10.551   0.391  24.537  0.00  0.00    +0.000 A 
ATOM     10  C   UNL     1      10.291  -0.660  23.519  0.00  0.00    +0.000 A 
ENDROOT
BRANCH   1  11
ATOM     11  C   UNL     1       8.847  -1.631  25.504  0.00  0.00    +0.000 C 
BRANCH  11  12
ATOM     12  C   UNL     1       7.754  -2.737  25.537  0.00  0.00    +0.000 C 
BRANCH  12  16
ATOM     13  C   UNL     1       9.275  -5.349  25.319  0.00  0.00    +0.000 C 
ATOM     14  C   UNL     1       8.208  -4.979  26.324  0.00  0.00    +0.000 C 
ATOM     15  O   UNL     1       7.586  -5.819  26.935  0.00  0.00    +0.000 OA
ATOM     16  N   UNL     1       8.087  -3.666  26.602  0.00  0.00    +0.000 NA
ENDBRANCH  12  16
ENDBRANCH  11  12
ENDBRANCH   1  11
TORSDOF 3
ENDMDL
MODEL 5
REMARK VINA RESULT:      -6.0      2.955      4.428
REMARK  Name = 
REMARK  3 active torsions:
REMARK  status: ('A' for Active; 'I' for Inactive)
REMARK    1  A    between atoms: N_4  and  C_5
REMARK    2  A    between atoms: C_5  and  C_6
REMARK    3  A    between atoms: C_6  and  C_7
REMARK                            x       y       z     vdW  Elec       q    Type
REMARK                         _______ _______ _______ _____ _____    ______ ____
ROOT
ATOM      1  C   UNL     1       8.501   0.732  21.063  0.00  0.00    +0.000 A 
ATOM      2  C   UNL     1       7.014   0.906  21.126  0.00  0.00    +0.000 A 
ATOM      3  N   UNL     1       6.739   2.101  21.920  0.00  0.00    +0.000 NA
ATOM      4  C   UNL     1       7.884   2.759  22.239  0.00  0.00    +0.000 A 
ATOM      5  C   UNL     1       7.835   3.020  23.866  0.00  0.00    +0.000 A 
ATOM      6  C   UNL     1       9.075   2.459  24.473  0.00  0.00    +0.000 A 
ATOM      7  C   UNL     1      10.333   1.870  24.032  0.00  0.00    +0.000 A 
ATOM      8  F   UNL     1      10.611   0.806  24.780  0.00  0.00    +0.000 F 
ATOM      9  C   UNL     1      10.308   1.478  22.544  0.00  0.00    +0.000 A 
ATOM     10  C   UNL     1       9.056   1.883  21.854  0.00  0.00    +0.000 A 
ENDROOT
BRANCH   1  11
ATOM     11  C   UNL     1       9.028  -0.697  21.296  0.00  0.00    +0.000 C 
BRANCH  11  12
ATOM     12  C   UNL     1       7.846  -1.441  21.982  0.00  0.00    +0.000 C 
BRANCH  12  16
ATOM     13  C   UNL     1       8.578  -1.723  24.910  0.00  0.00    +0.000 C 
ATOM     14  C   UNL     1       9.186  -2.446  23.728  0.00  0.00    +0.000 C 
ATOM     15  O   UNL     1      10.280  -2.958  23.786  0.00  0.00    +0.000 OA
ATOM     16  N   UNL     1       8.382  -2.609  22.658  0.00  0.00    +0.000 NA
ENDBRANCH  12  16
ENDBRANCH  11  12
ENDBRANCH   1  11
TORSDOF 3
ENDMDL
MODEL 6
REMARK VINA RESULT:      -5.9      3.415      4.600
REMARK  Name = 
REMARK  3 active torsions:
REMARK  status: ('A' for Active; 'I' for Inactive)
REMARK    1  A    between atoms: N_4  and  C_5
REMARK    2  A    between atoms: C_5  and  C_6
REMARK    3  A    between atoms: C_6  and  C_7
REMARK                            x       y       z     vdW  Elec       q    Type
REMARK                         _______ _______ _______ _____ _____    ______ ____
ROOT
ATOM      1  C   UNL     1       8.062  -2.213  22.188  0.00  0.00    +0.000 A 
ATOM      2  C   UNL     1       6.939  -1.493  21.505  0.00  0.00    +0.000 A 
ATOM      3  N   UNL     1       7.489  -0.281  20.902  0.00  0.00    +0.000 NA
ATOM      4  C   UNL     1       8.842  -0.240  21.017  0.00  0.00    +0.000 A 
ATOM      5  C   UNL     1       9.213   1.239  21.645  0.00  0.00    +0.000 A 
ATOM      6  C   UNL     1      10.033   1.040  22.873  0.00  0.00    +0.000 A 
ATOM      7  C   UNL     1      10.680  -0.056  23.584  0.00  0.00    +0.000 A 
ATOM      8  F   UNL     1      10.459   0.072  24.890  0.00  0.00    +0.000 F 
ATOM      9  C   UNL     1      10.202  -1.435  23.099  0.00  0.00    +0.000 A 
ATOM     10  C   UNL     1       9.272  -1.357  21.942  0.00  0.00    +0.000 A 
ENDROOT
BRANCH   1  11
ATOM     11  C   UNL     1       7.763  -2.752  23.600  0.00  0.00    +0.000 C 
BRANCH  11  12
ATOM     12  C   UNL     1       7.826  -4.298  23.449  0.00  0.00    +0.000 C 
BRANCH  12  16
ATOM     13  C   UNL     1       6.246  -5.831  21.366  0.00  0.00    +0.000 C 
ATOM     14  C   UNL     1       5.713  -4.923  22.451  0.00  0.00    +0.000 C 
ATOM     15  O   UNL     1       4.612  -4.425  22.385  0.00  0.00    +0.000 OA
ATOM     16  N   UNL     1       6.473  -4.815  23.559  0.00  0.00    +0.000 NA
ENDBRANCH  12  16
ENDBRANCH  11  12
ENDBRANCH   1  11
TORSDOF 3
ENDMDL
MODEL 7
REMARK VINA RESULT:      -5.8      3.489      5.575
REMARK  Name = 
REMARK  3 active torsions:
REMARK  status: ('A' for Active; 'I' for Inactive)
REMARK    1  A    between atoms: N_4  and  C_5
REMARK    2  A    between atoms: C_5  and  C_6
REMARK    3  A    between atoms: C_6  and  C_7
REMARK                            x       y       z     vdW  Elec       q    Type
REMARK                         _______ _______ _______ _____ _____    ______ ____
ROOT
ATOM      1  C   UNL     1       9.392  -0.948  21.833  0.00  0.00    +0.000 A 
ATOM      2  C   UNL     1       8.046  -1.597  21.720  0.00  0.00    +0.000 A 
ATOM      3  N   UNL     1       7.111  -0.597  21.209  0.00  0.00    +0.000 NA
ATOM      4  C   UNL     1       7.753   0.551  20.865  0.00  0.00    +0.000 A 
ATOM      5  C   UNL     1       6.935   1.780  21.599  0.00  0.00    +0.000 A 
ATOM      6  C   UNL     1       7.899   2.570  22.416  0.00  0.00    +0.000 A 
ATOM      7  C   UNL     1       9.337   2.629  22.645  0.00  0.00    +0.000 A 
ATOM      8  F   UNL     1       9.573   2.763  23.947  0.00  0.00    +0.000 F 
ATOM      9  C   UNL     1      10.072   1.394  22.098  0.00  0.00    +0.000 A 
ATOM     10  C   UNL     1       9.179   0.462  21.360  0.00  0.00    +0.000 A 
ENDROOT
BRANCH   1  11
ATOM     11  C   UNL     1      10.171  -1.223  23.134  0.00  0.00    +0.000 C 
BRANCH  11  12
ATOM     12  C   UNL     1       9.233  -2.147  23.961  0.00  0.00    +0.000 C 
BRANCH  12  16
ATOM     13  C   UNL     1       8.031  -4.925  24.107  0.00  0.00    +0.000 C 
ATOM     14  C   UNL     1       9.278  -4.417  24.796  0.00  0.00    +0.000 C 
ATOM     15  O   UNL     1       9.739  -4.967  25.770  0.00  0.00    +0.000 OA
ATOM     16  N   UNL     1       9.922  -3.406  24.181  0.00  0.00    +0.000 NA
ENDBRANCH  12  16
ENDBRANCH  11  12
ENDBRANCH   1  11
TORSDOF 3
ENDMDL
MODEL 8
REMARK VINA RESULT:      -5.8      3.722      5.608
REMARK  Name = 
REMARK  3 active torsions:
REMARK  status: ('A' for Active; 'I' for Inactive)
REMARK    1  A    between atoms: N_4  and  C_5
REMARK    2  A    between atoms: C_5  and  C_6
REMARK    3  A    between atoms: C_6  and  C_7
REMARK                            x       y       z     vdW  Elec       q    Type
REMARK                         _______ _______ _______ _____ _____    ______ ____
ROOT
ATOM      1  C   UNL     1       8.316  -1.630  23.775  0.00  0.00    +0.000 A 
ATOM      2  C   UNL     1       9.599  -1.593  24.549  0.00  0.00    +0.000 A 
ATOM      3  N   UNL     1      10.091  -0.217  24.529  0.00  0.00    +0.000 NA
ATOM      4  C   UNL     1       9.192   0.622  23.950  0.00  0.00    +0.000 A 
ATOM      5  C   UNL     1      10.021   1.486  22.817  0.00  0.00    +0.000 A 
ATOM      6  C   UNL     1       9.334   1.327  21.504  0.00  0.00    +0.000 A 
ATOM      7  C   UNL     1       8.107   0.740  20.982  0.00  0.00    +0.000 A 
ATOM      8  F   UNL     1       8.373   0.080  19.858  0.00  0.00    +0.000 F 
ATOM      9  C   UNL     1       7.425  -0.197  21.996  0.00  0.00    +0.000 A 
ATOM     10  C   UNL     1       8.101  -0.215  23.319  0.00  0.00    +0.000 A 
ENDROOT
BRANCH   1  11
ATOM     11  C   UNL     1       8.155  -2.799  22.785  0.00  0.00    +0.000 C 
BRANCH  11  12
ATOM     12  C   UNL     1       7.449  -3.914  23.608  0.00  0.00    +0.000 C 
BRANCH  12  16
ATOM     13  C   UNL     1       8.120  -5.291  26.224  0.00  0.00    +0.000 C 
ATOM     14  C   UNL     1       9.023  -5.079  25.029  0.00  0.00    +0.000 C 
ATOM     15  O   UNL     1      10.228  -5.124  25.123  0.00  0.00    +0.000 OA
ATOM     16  N   UNL     1       8.408  -4.981  23.834  0.00  0.00    +0.000 NA
ENDBRANCH  12  16
ENDBRANCH  11  12
ENDBRANCH   1  11
TORSDOF 3
ENDMDL
MODEL 9
REMARK VINA RESULT:      -5.5      4.892      6.276
REMARK  Name = 
REMARK  3 active torsions:
REMARK  status: ('A' for Active; 'I' for Inactive)
REMARK    1  A    between atoms: N_4  and  C_5
REMARK    2  A    between atoms: C_5  and  C_6
REMARK    3  A    between atoms: C_6  and  C_7
REMARK                            x       y       z     vdW  Elec       q    Type
REMARK                         _______ _______ _______ _____ _____    ______ ____
ROOT
ATOM      1  C   UNL     1       5.496  -4.352  25.631  0.00  0.00    +0.000 A 
ATOM      2  C   UNL     1       5.706  -5.740  26.155  0.00  0.00    +0.000 A 
ATOM      3  N   UNL     1       7.096  -5.844  26.594  0.00  0.00    +0.000 NA
ATOM      4  C   UNL     1       7.728  -4.642  26.528  0.00  0.00    +0.000 A 
ATOM      5  C   UNL     1       9.133  -4.898  25.705  0.00  0.00    +0.000 A 
ATOM      6  C   UNL     1       9.187  -3.955  24.554  0.00  0.00    +0.000 A 
ATOM      7  C   UNL     1       8.426  -2.824  24.037  0.00  0.00    +0.000 A 
ATOM      8  F   UNL     1       8.291  -2.945  22.719  0.00  0.00    +0.000 F 
ATOM      9  C   UNL     1       7.043  -2.693  24.700  0.00  0.00    +0.000 A 
ATOM     10  C   UNL     1       6.826  -3.674  25.795  0.00  0.00    +0.000 A 
ENDROOT
BRANCH   1  11
ATOM     11  C   UNL     1       4.724  -4.239  24.302  0.00  0.00    +0.000 C 
BRANCH  11  12
ATOM     12  C   UNL     1       4.662  -5.696  23.762  0.00  0.00    +0.000 C 
BRANCH  12  16
ATOM     13  C   UNL     1       7.190  -5.953  22.111  0.00  0.00    +0.000 C 
ATOM     14  C   UNL     1       5.934  -5.185  21.768  0.00  0.00    +0.000 C 
ATOM     15  O   UNL     1       5.933  -4.292  20.952  0.00  0.00    +0.000 OA
ATOM     16  N   UNL     1       4.792  -5.645  22.316  0.00  0.00    +0.000 NA
ENDBRANCH  12  16
ENDBRANCH  11  12
ENDBRANCH   1  11
TORSDOF 3
ENDMDL
