MODEL 1
REMARK VINA RESULT:      -5.7      0.000      0.000
REMARK  Name = 
REMARK  2 active torsions:
REMARK  status: ('A' for Active; 'I' for Inactive)
REMARK    1  A    between atoms: C_6  and  C_7
REMARK    2  A    between atoms: C_7  and  N_8
REMARK                            x       y       z     vdW  Elec       q    Type
REMARK                         _______ _______ _______ _____ _____    ______ ____
ROOT
ATOM      1 CL   UNL     1       9.522  -0.549  25.411  0.00  0.00    +0.000 Cl
ATOM      2  C   UNL     1      10.492  -0.181  24.047  0.00  0.00    +0.000 A 
ATOM      3  C   UNL     1      10.672   1.453  24.208  0.00  0.00    +0.000 A 
ATOM      4  C   UNL     1      10.430   2.078  22.863  0.00  0.00    +0.000 A 
ATOM      5  C   UNL     1       9.549   1.713  21.692  0.00  0.00    +0.000 A 
ATOM      6  C   UNL     1       9.311   0.157  21.577  0.00  0.00    +0.000 A 
ATOM      7  C   UNL     1       9.748  -0.488  22.844  0.00  0.00    +0.000 A 
ENDROOT
BRANCH   6   8
ATOM      8  C   UNL     1       7.861  -0.138  21.219  0.00  0.00    +0.000 C 
BRANCH   8   9
ATOM      9  N   UNL     1       7.406   0.662  20.168  0.00  0.00    +0.000 NA
ATOM     10  C   UNL     1       6.302   1.445  20.475  0.00  0.00    +0.000 C 
ATOM     11  C   UNL     1       5.311   1.522  19.318  0.00  0.00    +0.000 C 
ATOM     12  O   UNL     1       5.072   0.196  18.912  0.00  0.00    +0.000 OA
ATOM     13  C   UNL     1       6.189  -0.250  18.223  0.00  0.00    +0.000 C 
ATOM     14  C   UNL     1       7.459   0.126  18.909  0.00  0.00    +0.000 C 
ENDBRANCH   8   9
ENDBRANCH   6   8
TORSDOF 2
ENDMDL
MODEL 2
REMARK VINA RESULT:      -5.2      3.982      5.487
REMARK  Name = 
REMARK  2 active torsions:
REMARK  status: ('A' for Active; 'I' for Inactive)
REMARK    1  A    between atoms: C_6  and  C_7
REMARK    2  A    between atoms: C_7  and  N_8
REMARK                            x       y       z     vdW  Elec       q    Type
REMARK                         _______ _______ _______ _____ _____    ______ ____
ROOT
ATOM      1 CL   UNL     1       9.328   2.485  24.579  0.00  0.00    +0.000 Cl
ATOM      2  C   UNL     1      10.397   1.488  23.684  0.00  0.00    +0.000 A 
ATOM      3  C   UNL     1       9.774   1.628  22.162  0.00  0.00    +0.000 A 
ATOM      4  C   UNL     1       9.702   0.251  21.564  0.00  0.00    +0.000 A 
ATOM      5  C   UNL     1       9.476  -1.124  22.148  0.00  0.00    +0.000 A 
ATOM      6  C   UNL     1      10.002  -1.242  23.632  0.00  0.00    +0.000 A 
ATOM      7  C   UNL     1      10.271   0.123  24.154  0.00  0.00    +0.000 A 
ENDROOT
BRANCH   6   8
ATOM      8  C   UNL     1       9.019  -2.032  24.486  0.00  0.00    +0.000 C 
BRANCH   8   9
ATOM      9  N   UNL     1       8.956  -3.375  24.108  0.00  0.00    +0.000 NA
ATOM     10  C   UNL     1       7.760  -3.750  23.510  0.00  0.00    +0.000 C 
ATOM     11  C   UNL     1       7.307  -5.139  23.949  0.00  0.00    +0.000 C 
ATOM     12  O   UNL     1       7.359  -5.147  25.354  0.00  0.00    +0.000 OA
ATOM     13  C   UNL     1       8.691  -5.212  25.736  0.00  0.00    +0.000 C 
ATOM     14  C   UNL     1       9.548  -4.286  24.941  0.00  0.00    +0.000 C 
ENDBRANCH   8   9
ENDBRANCH   6   8
TORSDOF 2
ENDMDL
MODEL 3
REMARK VINA RESULT:      -5.1      4.472      5.963
REMARK  Name = 
REMARK  2 active torsions:
REMARK  status: ('A' for Active; 'I' for Inactive)
REMARK    1  A    between atoms: C_6  and  C_7
REMARK    2  A    between atoms: C_7  and  N_8
REMARK                            x       y       z     vdW  Elec       q    Type
REMARK                         _______ _______ _______ _____ _____    ______ ____
ROOT
ATOM      1 CL   UNL     1       7.831  -0.028  19.815  0.00  0.00    +0.000 Cl
ATOM      2  C   UNL     1       8.042   0.220  21.498  0.00  0.00    +0.000 A 
ATOM      3  C   UNL     1       9.682   0.382  21.599  0.00  0.00    +0.000 A 
ATOM      4  C   UNL     1      10.159  -0.458  22.750  0.00  0.00    +0.000 A 
ATOM      5  C   UNL     1       9.674  -1.751  23.363  0.00  0.00    +0.000 A 
ATOM      6  C   UNL     1       8.117  -1.948  23.203  0.00  0.00    +0.000 A 
ATOM      7  C   UNL     1       7.611  -0.967  22.206  0.00  0.00    +0.000 A 
ENDROOT
BRANCH   6   8
ATOM      8  C   UNL     1       7.793  -3.393  22.846  0.00  0.00    +0.000 C 
BRANCH   8   9
ATOM      9  N   UNL     1       7.514  -4.164  23.977  0.00  0.00    +0.000 NA
ATOM     10  C   UNL     1       6.879  -3.476  25.002  0.00  0.00    +0.000 C 
ATOM     11  C   UNL     1       7.396  -3.886  26.377  0.00  0.00    +0.000 C 
ATOM     12  O   UNL     1       8.799  -3.805  26.314  0.00  0.00    +0.000 OA
ATOM     13  C   UNL     1       9.259  -4.880  25.570  0.00  0.00    +0.000 C 
ATOM     14  C   UNL     1       8.447  -5.099  24.338  0.00  0.00    +0.000 C 
ENDBRANCH   8   9
ENDBRANCH   6   8
TORSDOF 2
ENDMDL
MODEL 4
REMARK VINA RESULT:      -5.1      3.377      5.708
REMARK  Name = 
REMARK  2 active torsions:
REMARK  status: ('A' for Active; 'I' for Inactive)
REMARK    1  A    between atoms: C_6  and  C_7
REMARK    2  A    between atoms: C_7  and  N_8
REMARK                            x       y       z     vdW  Elec       q    Type
REMARK                         _______ _______ _______ _____ _____    ______ ____
ROOT
ATOM      1 CL   UNL     1       5.742   1.075  18.392  0.00  0.00    +0.000 Cl
ATOM      2  C   UNL     1       6.888  -0.039  19.012  0.00  0.00    +0.000 A 
ATOM      3  C   UNL     1       5.901  -1.207  19.634  0.00  0.00    +0.000 A 
ATOM      4  C   UNL     1       6.413  -1.563  21.002  0.00  0.00    +0.000 A 
ATOM      5  C   UNL     1       7.121  -0.779  22.081  0.00  0.00    +0.000 A 
ATOM      6  C   UNL     1       8.008   0.389  21.496  0.00  0.00    +0.000 A 
ATOM      7  C   UNL     1       7.640   0.601  20.071  0.00  0.00    +0.000 A 
ENDROOT
BRANCH   6   8
ATOM      8  C   UNL     1       7.871   1.644  22.348  0.00  0.00    +0.000 C 
BRANCH   8   9
ATOM      9  N   UNL     1       8.863   1.724  23.328  0.00  0.00    +0.000 NA
ATOM     10  C   UNL     1      10.098   1.221  22.942  0.00  0.00    +0.000 C 
ATOM     11  C   UNL     1      10.788   0.460  24.069  0.00  0.00    +0.000 C 
ATOM     12  O   UNL     1       9.842  -0.455  24.566  0.00  0.00    +0.000 OA
ATOM     13  C   UNL     1       8.909   0.252  25.309  0.00  0.00    +0.000 C 
ATOM     14  C   UNL     1       8.478   1.504  24.624  0.00  0.00    +0.000 C 
ENDBRANCH   8   9
ENDBRANCH   6   8
TORSDOF 2
ENDMDL
MODEL 5
REMARK VINA RESULT:      -5.0      3.076      4.515
REMARK  Name = 
REMARK  2 active torsions:
REMARK  status: ('A' for Active; 'I' for Inactive)
REMARK    1  A    between atoms: C_6  and  C_7
REMARK    2  A    between atoms: C_7  and  N_8
REMARK                            x       y       z     vdW  Elec       q    Type
REMARK                         _______ _______ _______ _____ _____    ______ ____
ROOT
ATOM      1 CL   UNL     1       8.761   1.565  25.032  0.00  0.00    +0.000 Cl
ATOM      2  C   UNL     1       9.281   1.999  23.458  0.00  0.00    +0.000 A 
ATOM      3  C   UNL     1       7.848   2.406  22.745  0.00  0.00    +0.000 A 
ATOM      4  C   UNL     1       7.808   1.757  21.389  0.00  0.00    +0.000 A 
ATOM      5  C   UNL     1       8.377   0.471  20.836  0.00  0.00    +0.000 A 
ATOM      6  C   UNL     1       9.707   0.037  21.567  0.00  0.00    +0.000 A 
ATOM      7  C   UNL     1       9.851   0.835  22.813  0.00  0.00    +0.000 A 
ENDROOT
BRANCH   6   8
ATOM      8  C   UNL     1       9.720  -1.466  21.808  0.00  0.00    +0.000 C 
BRANCH   8   9
ATOM      9  N   UNL     1       9.093  -1.811  23.008  0.00  0.00    +0.000 NA
ATOM     10  C   UNL     1       9.914  -2.455  23.923  0.00  0.00    +0.000 C 
ATOM     11  C   UNL     1       9.186  -3.574  24.662  0.00  0.00    +0.000 C 
ATOM     12  O   UNL     1       8.570  -4.365  23.675  0.00  0.00    +0.000 OA
ATOM     13  C   UNL     1       7.476  -3.668  23.186  0.00  0.00    +0.000 C 
ATOM     14  C   UNL     1       7.792  -2.233  22.932  0.00  0.00    +0.000 C 
ENDBRANCH   8   9
ENDBRANCH   6   8
TORSDOF 2
ENDMDL
MODEL 6
REMARK VINA RESULT:      -4.9      3.745      5.556
REMARK  Name = 
REMARK  2 active torsions:
REMARK  status: ('A' for Active; 'I' for Inactive)
REMARK    1  A    between atoms: C_6  and  C_7
REMARK    2  A    between atoms: C_7  and  N_8
REMARK                            x       y       z     vdW  Elec       q    Type
REMARK                         _______ _______ _______ _____ _____    ______ ____
ROOT
ATOM      1 CL   UNL     1       5.399  -3.590  22.500  0.00  0.00    +0.000 Cl
ATOM      2  C   UNL     1       7.035  -4.077  22.347  0.00  0.00    +0.000 A 
ATOM      3  C   UNL     1       7.183  -5.121  23.617  0.00  0.00    +0.000 A 
ATOM      4  C   UNL     1       8.465  -4.799  24.332  0.00  0.00    +0.000 A 
ATOM      5  C   UNL     1       9.238  -3.520  24.551  0.00  0.00    +0.000 A 
ATOM      6  C   UNL     1       9.040  -2.486  23.375  0.00  0.00    +0.000 A 
ATOM      7  C   UNL     1       7.889  -2.924  22.542  0.00  0.00    +0.000 A 
ENDROOT
BRANCH   6   8
ATOM      8  C   UNL     1       8.885  -1.074  23.924  0.00  0.00    +0.000 C 
BRANCH   8   9
ATOM      9  N   UNL     1       9.960  -0.253  23.576  0.00  0.00    +0.000 NA
ATOM     10  C   UNL     1      10.316   0.674  24.546  0.00  0.00    +0.000 C 
ATOM     11  C   UNL     1      10.699   2.021  23.941  0.00  0.00    +0.000 C 
ATOM     12  O   UNL     1       9.660   2.371  23.061  0.00  0.00    +0.000 OA
ATOM     13  C   UNL     1       9.768   1.576  21.930  0.00  0.00    +0.000 C 
ATOM     14  C   UNL     1      10.039   0.150  22.270  0.00  0.00    +0.000 C 
ENDBRANCH   8   9
ENDBRANCH   6   8
TORSDOF 2
ENDMDL
MODEL 7
REMARK VINA RESULT:      -4.9      4.226      5.188
REMARK  Name = 
REMARK  2 active torsions:
REMARK  status: ('A' for Active; 'I' for Inactive)
REMARK    1  A    between atoms: C_6  and  C_7
REMARK    2  A    between atoms: C_7  and  N_8
REMARK                            x       y       z     vdW  Elec       q    Type
REMARK                         _______ _______ _______ _____ _____    ______ ____
ROOT
ATOM      1 CL   UNL     1       7.807   0.157  19.638  0.00  0.00    +0.000 Cl
ATOM      2  C   UNL     1       7.876   0.263  21.347  0.00  0.00    +0.000 A 
ATOM      3  C   UNL     1       9.484   0.551  21.589  0.00  0.00    +0.000 A 
ATOM      4  C   UNL     1       9.952  -0.349  22.697  0.00  0.00    +0.000 A 
ATOM      5  C   UNL     1       9.544  -1.730  23.155  0.00  0.00    +0.000 A 
ATOM      6  C   UNL     1       8.025  -2.040  22.857  0.00  0.00    +0.000 A 
ATOM      7  C   UNL     1       7.504  -1.017  21.913  0.00  0.00    +0.000 A 
ENDROOT
BRANCH   6   8
ATOM      8  C   UNL     1       7.859  -3.467  22.352  0.00  0.00    +0.000 C 
BRANCH   8   9
ATOM      9  N   UNL     1       7.019  -4.221  23.175  0.00  0.00    +0.000 NA
ATOM     10  C   UNL     1       6.549  -5.394  22.600  0.00  0.00    +0.000 C 
ATOM     11  C   UNL     1       5.093  -5.669  22.961  0.00  0.00    +0.000 C 
ATOM     12  O   UNL     1       4.386  -4.484  22.687  0.00  0.00    +0.000 OA
ATOM     13  C   UNL     1       4.693  -3.561  23.675  0.00  0.00    +0.000 C 
ATOM     14  C   UNL     1       6.152  -3.531  23.980  0.00  0.00    +0.000 C 
ENDBRANCH   8   9
ENDBRANCH   6   8
TORSDOF 2
ENDMDL
MODEL 8
REMARK VINA RESULT:      -4.8      4.195      5.212
REMARK  Name = 
REMARK  2 active torsions:
REMARK  status: ('A' for Active; 'I' for Inactive)
REMARK    1  A    between atoms: C_6  and  C_7
REMARK    2  A    between atoms: C_7  and  N_8
REMARK                            x       y       z     vdW  Elec       q    Type
REMARK                         _______ _______ _______ _____ _____    ______ ____
ROOT
ATOM      1 CL   UNL     1       6.433   1.940  21.492  0.00  0.00    +0.000 Cl
ATOM      2  C   UNL     1       7.607   1.232  22.520  0.00  0.00    +0.000 A 
ATOM      3  C   UNL     1       8.959   1.318  21.575  0.00  0.00    +0.000 A 
ATOM      4  C   UNL     1       9.655  -0.013  21.645  0.00  0.00    +0.000 A 
ATOM      5  C   UNL     1       9.167  -1.432  21.816  0.00  0.00    +0.000 A 
ATOM      6  C   UNL     1       7.832  -1.514  22.655  0.00  0.00    +0.000 A 
ATOM      7  C   UNL     1       7.249  -0.150  22.761  0.00  0.00    +0.000 A 
ENDROOT
BRANCH   6   8
ATOM      8  C   UNL     1       6.878  -2.532  22.046  0.00  0.00    +0.000 C 
BRANCH   8   9
ATOM      9  N   UNL     1       7.264  -3.846  22.322  0.00  0.00    +0.000 NA
ATOM     10  C   UNL     1       6.600  -4.811  21.578  0.00  0.00    +0.000 C 
ATOM     11  C   UNL     1       6.270  -6.050  22.404  0.00  0.00    +0.000 C 
ATOM     12  O   UNL     1       5.642  -5.589  23.575  0.00  0.00    +0.000 OA
ATOM     13  C   UNL     1       6.610  -5.024  24.391  0.00  0.00    +0.000 C 
ATOM     14  C   UNL     1       7.547  -4.150  23.627  0.00  0.00    +0.000 C 
ENDBRANCH   8   9
ENDBRANCH   6   8
TORSDOF 2
ENDMDL
MODEL 9
REMARK VINA RESULT:      -4.8      3.214      4.758
REMARK  Name = 
REMARK  2 active torsions:
REMARK  status: ('A' for Active; 'I' for Inactive)
REMARK    1  A    between atoms: C_6  and  C_7
REMARK    2  A    between atoms: C_7  and  N_8
REMARK                            x       y       z     vdW  Elec       q    Type
REMARK                         _______ _______ _______ _____ _____    ______ ____
ROOT
ATOM      1 CL   UNL     1       9.806  -4.839  25.154  0.00  0.00    +0.000 Cl
ATOM      2  C   UNL     1       8.514  -3.750  24.867  0.00  0.00    +0.000 A 
ATOM      3  C   UNL     1       7.808  -4.429  23.538  0.00  0.00    +0.000 A 
ATOM      4  C   UNL     1       7.536  -3.330  22.549  0.00  0.00    +0.000 A 
ATOM      5  C   UNL     1       8.233  -2.029  22.224  0.00  0.00    +0.000 A 
ATOM      6  C   UNL     1       8.975  -1.414  23.474  0.00  0.00    +0.000 A 
ATOM      7  C   UNL     1       9.059  -2.450  24.538  0.00  0.00    +0.000 A 
ENDROOT
BRANCH   6   8
ATOM      8  C   UNL     1      10.331  -0.853  23.069  0.00  0.00    +0.000 C 
BRANCH   8   9
ATOM      9  N   UNL     1      10.363   0.542  23.133  0.00  0.00    +0.000 NA
ATOM     10  C   UNL     1       9.995   1.072  24.363  0.00  0.00    +0.000 C 
ATOM     11  C   UNL     1       9.155   2.336  24.216  0.00  0.00    +0.000 C 
ATOM     12  O   UNL     1       8.125   2.026  23.309  0.00  0.00    +0.000 OA
ATOM     13  C   UNL     1       8.674   1.970  22.037  0.00  0.00    +0.000 C 
ATOM     14  C   UNL     1       9.966   1.226  22.015  0.00  0.00    +0.000 C 
ENDBRANCH   8   9
ENDBRANCH   6   8
TORSDOF 2
ENDMDL
