MODEL 1
REMARK VINA RESULT:      -6.0      0.000      0.000
REMARK  Name = 
REMARK  4 active torsions:
REMARK  status: ('A' for Active; 'I' for Inactive)
REMARK    1  A    between atoms: C_7  and  C_8
REMARK    2  A    between atoms: N_10  and  C_11
REMARK    3  A    between atoms: C_11  and  C_12
REMARK    4  A    between atoms: C_12  and  C_13
REMARK                            x       y       z     vdW  Elec       q    Type
REMARK                         _______ _______ _______ _____ _____    ______ ____
ROOT
ATOM      1  C   UNL     1       8.945  -4.372  24.208  0.00  0.00    +0.000 C 
ATOM      2  O   UNL     1       9.384  -5.378  24.716  0.00  0.00    +0.000 OA
ATOM      3  N   UNL     1       9.565  -3.247  24.166  0.00  0.00    +0.000 NA
ENDROOT
BRANCH   1  10
ATOM      4  F   UNL     1       6.726  -3.730  21.608  0.00  0.00    +0.000 F 
ATOM      5  C   UNL     1       7.355  -4.655  22.383  0.00  0.00    +0.000 A 
ATOM      6  C   UNL     1       6.161  -5.804  22.250  0.00  0.00    +0.000 A 
ATOM      7  C   UNL     1       5.434  -5.854  23.556  0.00  0.00    +0.000 A 
ATOM      8  C   UNL     1       5.635  -5.418  24.942  0.00  0.00    +0.000 A 
ATOM      9  C   UNL     1       6.751  -4.354  25.078  0.00  0.00    +0.000 A 
ATOM     10  C   UNL     1       7.558  -4.269  23.778  0.00  0.00    +0.000 A 
ENDBRANCH   1  10
BRANCH   3  11
ATOM     11  C   UNL     1       9.277  -1.986  23.643  0.00  0.00    +0.000 C 
BRANCH  11  12
ATOM     12  C   UNL     1      10.258  -1.447  22.671  0.00  0.00    +0.000 C 
BRANCH  12  13
ATOM     13  C   UNL     1       9.705  -0.580  21.625  0.00  0.00    +0.000 A 
ATOM     14  C   UNL     1       9.945   1.007  21.992  0.00  0.00    +0.000 A 
ATOM     15  C   UNL     1       8.558   1.671  21.808  0.00  0.00    +0.000 A 
ATOM     16  N   UNL     1       7.334   1.356  21.502  0.00  0.00    +0.000 NA
ATOM     17  C   UNL     1       7.052  -0.002  21.208  0.00  0.00    +0.000 A 
ATOM     18  C   UNL     1       8.290  -0.831  21.237  0.00  0.00    +0.000 A 
ENDBRANCH  12  13
ENDBRANCH  11  12
ENDBRANCH   3  11
TORSDOF 4
ENDMDL
MODEL 2
REMARK VINA RESULT:      -6.0      2.356      5.423
REMARK  Name = 
REMARK  4 active torsions:
REMARK  status: ('A' for Active; 'I' for Inactive)
REMARK    1  A    between atoms: C_7  and  C_8
REMARK    2  A    between atoms: N_10  and  C_11
REMARK    3  A    between atoms: C_11  and  C_12
REMARK    4  A    between atoms: C_12  and  C_13
REMARK                            x       y       z     vdW  Elec       q    Type
REMARK                         _______ _______ _______ _____ _____    ______ ____
ROOT
ATOM      1  C   UNL     1      10.052  -1.863  22.954  0.00  0.00    +0.000 C 
ATOM      2  O   UNL     1      11.049  -1.775  22.276  0.00  0.00    +0.000 OA
ATOM      3  N   UNL     1       9.761  -2.873  23.694  0.00  0.00    +0.000 NA
ENDROOT
BRANCH   1  10
ATOM      4  F   UNL     1       8.158   0.637  24.459  0.00  0.00    +0.000 F 
ATOM      5  C   UNL     1       9.158   0.312  23.595  0.00  0.00    +0.000 A 
ATOM      6  C   UNL     1       8.969   1.652  22.630  0.00  0.00    +0.000 A 
ATOM      7  C   UNL     1       8.325   1.206  21.357  0.00  0.00    +0.000 A 
ATOM      8  C   UNL     1       8.086  -0.043  20.626  0.00  0.00    +0.000 A 
ATOM      9  C   UNL     1       8.268  -1.299  21.514  0.00  0.00    +0.000 A 
ATOM     10  C   UNL     1       8.952  -0.917  22.831  0.00  0.00    +0.000 A 
ENDBRANCH   1  10
BRANCH   3  11
ATOM     11  C   UNL     1       8.705  -3.192  24.548  0.00  0.00    +0.000 C 
BRANCH  11  12
ATOM     12  C   UNL     1       8.341  -4.627  24.620  0.00  0.00    +0.000 C 
BRANCH  12  13
ATOM     13  C   UNL     1       7.084  -4.998  23.960  0.00  0.00    +0.000 A 
ATOM     14  C   UNL     1       7.375  -5.696  22.498  0.00  0.00    +0.000 A 
ATOM     15  C   UNL     1       6.451  -4.944  21.508  0.00  0.00    +0.000 A 
ATOM     16  N   UNL     1       5.596  -3.964  21.489  0.00  0.00    +0.000 NA
ATOM     17  C   UNL     1       5.326  -3.297  22.710  0.00  0.00    +0.000 A 
ATOM     18  C   UNL     1       6.056  -3.927  23.846  0.00  0.00    +0.000 A 
ENDBRANCH  12  13
ENDBRANCH  11  12
ENDBRANCH   3  11
TORSDOF 4
ENDMDL
MODEL 3
REMARK VINA RESULT:      -6.0      2.455      3.451
REMARK  Name = 
REMARK  4 active torsions:
REMARK  status: ('A' for Active; 'I' for Inactive)
REMARK    1  A    between atoms: C_7  and  C_8
REMARK    2  A    between atoms: N_10  and  C_11
REMARK    3  A    between atoms: C_11  and  C_12
REMARK    4  A    between atoms: C_12  and  C_13
REMARK                            x       y       z     vdW  Elec       q    Type
REMARK                         _______ _______ _______ _____ _____    ______ ____
ROOT
ATOM      1  C   UNL     1       6.173  -2.500  21.596  0.00  0.00    +0.000 C 
ATOM      2  O   UNL     1       5.588  -3.311  20.916  0.00  0.00    +0.000 OA
ATOM      3  N   UNL     1       6.659  -1.394  21.156  0.00  0.00    +0.000 NA
ENDROOT
BRANCH   1  10
ATOM      4  F   UNL     1       5.851  -1.767  24.981  0.00  0.00    +0.000 F 
ATOM      5  C   UNL     1       5.531  -2.589  23.945  0.00  0.00    +0.000 A 
ATOM      6  C   UNL     1       5.319  -3.944  24.886  0.00  0.00    +0.000 A 
ATOM      7  C   UNL     1       6.492  -4.842  24.656  0.00  0.00    +0.000 A 
ATOM      8  C   UNL     1       7.575  -5.006  23.681  0.00  0.00    +0.000 A 
ATOM      9  C   UNL     1       7.776  -3.753  22.794  0.00  0.00    +0.000 A 
ATOM     10  C   UNL     1       6.590  -2.797  22.959  0.00  0.00    +0.000 A 
ENDBRANCH   1  10
BRANCH   3  11
ATOM     11  C   UNL     1       7.347  -0.326  21.732  0.00  0.00    +0.000 C 
BRANCH  11  12
ATOM     12  C   UNL     1       8.423   0.272  20.907  0.00  0.00    +0.000 C 
BRANCH  12  13
ATOM     13  C   UNL     1       9.720   0.434  21.575  0.00  0.00    +0.000 A 
ATOM     14  C   UNL     1       9.955  -0.751  22.693  0.00  0.00    +0.000 A 
ATOM     15  C   UNL     1      10.382  -0.003  23.980  0.00  0.00    +0.000 A 
ATOM     16  N   UNL     1      10.565   1.209  24.415  0.00  0.00    +0.000 NA
ATOM     17  C   UNL     1      10.346   2.278  23.512  0.00  0.00    +0.000 A 
ATOM     18  C   UNL     1      10.004   1.777  22.151  0.00  0.00    +0.000 A 
ENDBRANCH  12  13
ENDBRANCH  11  12
ENDBRANCH   3  11
TORSDOF 4
ENDMDL
MODEL 4
REMARK VINA RESULT:      -5.8      2.749      5.775
REMARK  Name = 
REMARK  4 active torsions:
REMARK  status: ('A' for Active; 'I' for Inactive)
REMARK    1  A    between atoms: C_7  and  C_8
REMARK    2  A    between atoms: N_10  and  C_11
REMARK    3  A    between atoms: C_11  and  C_12
REMARK    4  A    between atoms: C_12  and  C_13
REMARK                            x       y       z     vdW  Elec       q    Type
REMARK                         _______ _______ _______ _____ _____    ______ ____
ROOT
ATOM      1  C   UNL     1       9.741   0.718  21.981  0.00  0.00    +0.000 C 
ATOM      2  O   UNL     1      10.206   1.801  21.708  0.00  0.00    +0.000 OA
ATOM      3  N   UNL     1      10.433  -0.297  22.359  0.00  0.00    +0.000 NA
ENDROOT
BRANCH   1  10
ATOM      4  F   UNL     1       6.498   0.391  23.195  0.00  0.00    +0.000 F 
ATOM      5  C   UNL     1       7.397   1.139  22.500  0.00  0.00    +0.000 A 
ATOM      6  C   UNL     1       6.265   1.883  21.536  0.00  0.00    +0.000 A 
ATOM      7  C   UNL     1       6.373   1.287  20.169  0.00  0.00    +0.000 A 
ATOM      8  C   UNL     1       7.325   0.487  19.393  0.00  0.00    +0.000 A 
ATOM      9  C   UNL     1       8.389  -0.204  20.280  0.00  0.00    +0.000 A 
ATOM     10  C   UNL     1       8.354   0.381  21.695  0.00  0.00    +0.000 A 
ENDBRANCH   1  10
BRANCH   3  11
ATOM     11  C   UNL     1      10.132  -1.609  22.727  0.00  0.00    +0.000 C 
BRANCH  11  12
ATOM     12  C   UNL     1       9.714  -1.808  24.134  0.00  0.00    +0.000 C 
BRANCH  12  13
ATOM     13  C   UNL     1       8.529  -2.650  24.332  0.00  0.00    +0.000 A 
ATOM     14  C   UNL     1       8.928  -4.051  25.099  0.00  0.00    +0.000 A 
ATOM     15  C   UNL     1       8.284  -5.169  24.242  0.00  0.00    +0.000 A 
ATOM     16  N   UNL     1       7.595  -5.317  23.149  0.00  0.00    +0.000 NA
ATOM     17  C   UNL     1       7.248  -4.151  22.422  0.00  0.00    +0.000 A 
ATOM     18  C   UNL     1       7.699  -2.917  23.126  0.00  0.00    +0.000 A 
ENDBRANCH  12  13
ENDBRANCH  11  12
ENDBRANCH   3  11
TORSDOF 4
ENDMDL
MODEL 5
REMARK VINA RESULT:      -5.7      2.275      3.394
REMARK  Name = 
REMARK  4 active torsions:
REMARK  status: ('A' for Active; 'I' for Inactive)
REMARK    1  A    between atoms: C_7  and  C_8
REMARK    2  A    between atoms: N_10  and  C_11
REMARK    3  A    between atoms: C_11  and  C_12
REMARK    4  A    between atoms: C_12  and  C_13
REMARK                            x       y       z     vdW  Elec       q    Type
REMARK                         _______ _______ _______ _____ _____    ______ ____
ROOT
ATOM      1  C   UNL     1       6.893  -1.782  23.119  0.00  0.00    +0.000 C 
ATOM      2  O   UNL     1       5.969  -1.850  23.897  0.00  0.00    +0.000 OA
ATOM      3  N   UNL     1       6.972  -0.936  22.154  0.00  0.00    +0.000 NA
ENDROOT
BRANCH   1  10
ATOM      4  F   UNL     1      10.249  -2.592  23.545  0.00  0.00    +0.000 F 
ATOM      5  C   UNL     1       8.983  -2.625  24.045  0.00  0.00    +0.000 A 
ATOM      6  C   UNL     1       9.208  -4.008  24.939  0.00  0.00    +0.000 A 
ATOM      7  C   UNL     1       8.488  -5.119  24.245  0.00  0.00    +0.000 A 
ATOM      8  C   UNL     1       7.456  -5.284  23.217  0.00  0.00    +0.000 A 
ATOM      9  C   UNL     1       7.232  -3.999  22.382  0.00  0.00    +0.000 A 
ATOM     10  C   UNL     1       7.923  -2.808  23.055  0.00  0.00    +0.000 A 
ENDBRANCH   1  10
BRANCH   3  11
ATOM     11  C   UNL     1       7.912  -0.665  21.160  0.00  0.00    +0.000 C 
BRANCH  11  12
ATOM     12  C   UNL     1       8.071   0.761  20.789  0.00  0.00    +0.000 C 
BRANCH  12  13
ATOM     13  C   UNL     1       9.057   1.515  21.572  0.00  0.00    +0.000 A 
ATOM     14  C   UNL     1      10.152   0.502  22.268  0.00  0.00    +0.000 A 
ATOM     15  C   UNL     1      10.199   0.931  23.755  0.00  0.00    +0.000 A 
ATOM     16  N   UNL     1       9.640   1.778  24.568  0.00  0.00    +0.000 NA
ATOM     17  C   UNL     1       8.663   2.657  24.039  0.00  0.00    +0.000 A 
ATOM     18  C   UNL     1       8.513   2.480  22.567  0.00  0.00    +0.000 A 
ENDBRANCH  12  13
ENDBRANCH  11  12
ENDBRANCH   3  11
TORSDOF 4
ENDMDL
MODEL 6
REMARK VINA RESULT:      -5.7      2.300      5.610
REMARK  Name = 
REMARK  4 active torsions:
REMARK  status: ('A' for Active; 'I' for Inactive)
REMARK    1  A    between atoms: C_7  and  C_8
REMARK    2  A    between atoms: N_10  and  C_11
REMARK    3  A    between atoms: C_11  and  C_12
REMARK    4  A    between atoms: C_12  and  C_13
REMARK                            x       y       z     vdW  Elec       q    Type
REMARK                         _______ _______ _______ _____ _____    ______ ____
ROOT
ATOM      1  C   UNL     1       8.816  -0.614  24.533  0.00  0.00    +0.000 C 
ATOM      2  O   UNL     1       8.676   0.242  25.376  0.00  0.00    +0.000 OA
ATOM      3  N   UNL     1       9.204  -1.816  24.774  0.00  0.00    +0.000 NA
ENDROOT
BRANCH   1  10
ATOM      4  F   UNL     1       7.106  -0.933  21.521  0.00  0.00    +0.000 F 
ATOM      5  C   UNL     1       7.415  -0.154  22.594  0.00  0.00    +0.000 A 
ATOM      6  C   UNL     1       7.247   1.290  21.787  0.00  0.00    +0.000 A 
ATOM      7  C   UNL     1       8.617   1.841  21.553  0.00  0.00    +0.000 A 
ATOM      8  C   UNL     1       9.981   1.638  22.051  0.00  0.00    +0.000 A 
ATOM      9  C   UNL     1      10.147   0.299  22.811  0.00  0.00    +0.000 A 
ATOM     10  C   UNL     1       8.774  -0.309  23.111  0.00  0.00    +0.000 A 
ENDBRANCH   1  10
BRANCH   3  11
ATOM     11  C   UNL     1       9.426  -2.951  23.994  0.00  0.00    +0.000 C 
BRANCH  11  12
ATOM     12  C   UNL     1       8.358  -3.978  24.024  0.00  0.00    +0.000 C 
BRANCH  12  13
ATOM     13  C   UNL     1       7.351  -3.878  22.962  0.00  0.00    +0.000 A 
ATOM     14  C   UNL     1       5.909  -3.365  23.568  0.00  0.00    +0.000 A 
ATOM     15  C   UNL     1       4.867  -4.369  23.016  0.00  0.00    +0.000 A 
ATOM     16  N   UNL     1       4.807  -5.446  22.290  0.00  0.00    +0.000 NA
ATOM     17  C   UNL     1       6.018  -5.960  21.765  0.00  0.00    +0.000 A 
ATOM     18  C   UNL     1       7.173  -5.081  22.103  0.00  0.00    +0.000 A 
ENDBRANCH  12  13
ENDBRANCH  11  12
ENDBRANCH   3  11
TORSDOF 4
ENDMDL
MODEL 7
REMARK VINA RESULT:      -5.6      2.516      6.221
REMARK  Name = 
REMARK  4 active torsions:
REMARK  status: ('A' for Active; 'I' for Inactive)
REMARK    1  A    between atoms: C_7  and  C_8
REMARK    2  A    between atoms: N_10  and  C_11
REMARK    3  A    between atoms: C_11  and  C_12
REMARK    4  A    between atoms: C_12  and  C_13
REMARK                            x       y       z     vdW  Elec       q    Type
REMARK                         _______ _______ _______ _____ _____    ______ ____
ROOT
ATOM      1  C   UNL     1       7.544  -0.798  23.600  0.00  0.00    +0.000 C 
ATOM      2  O   UNL     1       6.810   0.002  24.133  0.00  0.00    +0.000 OA
ATOM      3  N   UNL     1       7.263  -2.041  23.426  0.00  0.00    +0.000 NA
ENDROOT
BRANCH   1  10
ATOM      4  F   UNL     1       9.938  -0.217  21.144  0.00  0.00    +0.000 F 
ATOM      5  C   UNL     1       9.088   0.304  22.070  0.00  0.00    +0.000 A 
ATOM      6  C   UNL     1       9.991   1.670  22.355  0.00  0.00    +0.000 A 
ATOM      7  C   UNL     1      10.643   1.512  23.691  0.00  0.00    +0.000 A 
ATOM      8  C   UNL     1      10.500   0.680  24.890  0.00  0.00    +0.000 A 
ATOM      9  C   UNL     1       9.653  -0.591  24.638  0.00  0.00    +0.000 A 
ATOM     10  C   UNL     1       8.931  -0.484  23.291  0.00  0.00    +0.000 A 
ENDBRANCH   1  10
BRANCH   3  11
ATOM     11  C   UNL     1       7.924  -3.125  22.848  0.00  0.00    +0.000 C 
BRANCH  11  12
ATOM     12  C   UNL     1       7.204  -4.420  22.891  0.00  0.00    +0.000 C 
BRANCH  12  13
ATOM     13  C   UNL     1       7.515  -5.282  24.037  0.00  0.00    +0.000 A 
ATOM     14  C   UNL     1       6.271  -5.295  25.115  0.00  0.00    +0.000 A 
ATOM     15  C   UNL     1       6.932  -5.014  26.487  0.00  0.00    +0.000 A 
ATOM     16  N   UNL     1       8.099  -4.753  26.997  0.00  0.00    +0.000 NA
ATOM     17  C   UNL     1       9.209  -4.694  26.118  0.00  0.00    +0.000 A 
ATOM     18  C   UNL     1       8.813  -5.030  24.721  0.00  0.00    +0.000 A 
ENDBRANCH  12  13
ENDBRANCH  11  12
ENDBRANCH   3  11
TORSDOF 4
ENDMDL
MODEL 8
REMARK VINA RESULT:      -5.6      2.741      6.127
REMARK  Name = 
REMARK  4 active torsions:
REMARK  status: ('A' for Active; 'I' for Inactive)
REMARK    1  A    between atoms: C_7  and  C_8
REMARK    2  A    between atoms: N_10  and  C_11
REMARK    3  A    between atoms: C_11  and  C_12
REMARK    4  A    between atoms: C_12  and  C_13
REMARK                            x       y       z     vdW  Elec       q    Type
REMARK                         _______ _______ _______ _____ _____    ______ ____
ROOT
ATOM      1  C   UNL     1       7.539  -0.623  23.540  0.00  0.00    +0.000 C 
ATOM      2  O   UNL     1       6.822   0.184  24.085  0.00  0.00    +0.000 OA
ATOM      3  N   UNL     1       7.251  -1.867  23.386  0.00  0.00    +0.000 NA
ENDROOT
BRANCH   1  10
ATOM      4  F   UNL     1       9.878  -0.124  21.014  0.00  0.00    +0.000 F 
ATOM      5  C   UNL     1       9.045   0.428  21.938  0.00  0.00    +0.000 A 
ATOM      6  C   UNL     1       9.949   1.807  22.154  0.00  0.00    +0.000 A 
ATOM      7  C   UNL     1      10.629   1.700  23.480  0.00  0.00    +0.000 A 
ATOM      8  C   UNL     1      10.515   0.912  24.712  0.00  0.00    +0.000 A 
ATOM      9  C   UNL     1       9.669  -0.371  24.525  0.00  0.00    +0.000 A 
ATOM     10  C   UNL     1       8.918  -0.316  23.190  0.00  0.00    +0.000 A 
ENDBRANCH   1  10
BRANCH   3  11
ATOM     11  C   UNL     1       7.893  -2.958  22.800  0.00  0.00    +0.000 C 
BRANCH  11  12
ATOM     12  C   UNL     1       8.215  -4.084  23.708  0.00  0.00    +0.000 C 
BRANCH  12  13
ATOM     13  C   UNL     1       7.358  -5.269  23.580  0.00  0.00    +0.000 A 
ATOM     14  C   UNL     1       7.199  -5.708  22.001  0.00  0.00    +0.000 A 
ATOM     15  C   UNL     1       5.674  -5.879  21.789  0.00  0.00    +0.000 A 
ATOM     16  N   UNL     1       4.556  -5.752  22.441  0.00  0.00    +0.000 NA
ATOM     17  C   UNL     1       4.621  -5.343  23.796  0.00  0.00    +0.000 A 
ATOM     18  C   UNL     1       6.033  -5.202  24.253  0.00  0.00    +0.000 A 
ENDBRANCH  12  13
ENDBRANCH  11  12
ENDBRANCH   3  11
TORSDOF 4
ENDMDL
MODEL 9
REMARK VINA RESULT:      -5.3      2.177      2.870
REMARK  Name = 
REMARK  4 active torsions:
REMARK  status: ('A' for Active; 'I' for Inactive)
REMARK    1  A    between atoms: C_7  and  C_8
REMARK    2  A    between atoms: N_10  and  C_11
REMARK    3  A    between atoms: C_11  and  C_12
REMARK    4  A    between atoms: C_12  and  C_13
REMARK                            x       y       z     vdW  Elec       q    Type
REMARK                         _______ _______ _______ _____ _____    ______ ____
ROOT
ATOM      1  C   UNL     1       7.433  -3.549  23.146  0.00  0.00    +0.000 C 
ATOM      2  O   UNL     1       7.001  -4.597  22.723  0.00  0.00    +0.000 OA
ATOM      3  N   UNL     1       7.749  -2.543  22.411  0.00  0.00    +0.000 NA
ENDROOT
BRANCH   1  10
ATOM      4  F   UNL     1       6.790  -2.140  26.260  0.00  0.00    +0.000 F 
ATOM      5  C   UNL     1       6.738  -3.240  25.461  0.00  0.00    +0.000 A 
ATOM      6  C   UNL     1       6.846  -4.338  26.705  0.00  0.00    +0.000 A 
ATOM      7  C   UNL     1       8.220  -4.926  26.672  0.00  0.00    +0.000 A 
ATOM      8  C   UNL     1       9.348  -5.028  25.741  0.00  0.00    +0.000 A 
ATOM      9  C   UNL     1       9.254  -4.015  24.574  0.00  0.00    +0.000 A 
ATOM     10  C   UNL     1       7.855  -3.392  24.530  0.00  0.00    +0.000 A 
ENDBRANCH   1  10
BRANCH   3  11
ATOM     11  C   UNL     1       8.245  -1.262  22.659  0.00  0.00    +0.000 C 
BRANCH  11  12
ATOM     12  C   UNL     1       9.188  -0.725  21.651  0.00  0.00    +0.000 C 
BRANCH  12  13
ATOM     13  C   UNL     1       8.689   0.399  20.850  0.00  0.00    +0.000 A 
ATOM     14  C   UNL     1       8.002   1.545  21.813  0.00  0.00    +0.000 A 
ATOM     15  C   UNL     1       6.628   1.837  21.162  0.00  0.00    +0.000 A 
ATOM     16  N   UNL     1       5.893   1.444  20.164  0.00  0.00    +0.000 NA
ATOM     17  C   UNL     1       6.411   0.435  19.315  0.00  0.00    +0.000 A 
ATOM     18  C   UNL     1       7.797   0.054  19.709  0.00  0.00    +0.000 A 
ENDBRANCH  12  13
ENDBRANCH  11  12
ENDBRANCH   3  11
TORSDOF 4
ENDMDL
