MODEL 1
REMARK VINA RESULT:      -6.7      0.000      0.000
REMARK  Name = 
REMARK  3 active torsions:
REMARK  status: ('A' for Active; 'I' for Inactive)
REMARK    1  A    between atoms: C_7  and  S_9
REMARK    2  A    between atoms: S_9  and  N_12
REMARK    3  A    between atoms: C_18  and  C_20
REMARK                            x       y       z     vdW  Elec       q    Type
REMARK                         _______ _______ _______ _____ _____    ______ ____
ROOT
ATOM      1  S   UNL     1       9.584  -2.244  23.513  0.00  0.00    +0.000 S 
ATOM      2  O   UNL     1      10.154  -3.440  24.074  0.00  0.00    +0.000 OA
ATOM      3  O   UNL     1      10.067  -1.795  22.272  0.00  0.00    +0.000 OA
ENDROOT
BRANCH   1  10
ATOM      4  C   UNL     1       9.999   1.722  21.981  0.00  0.00    +0.000 C 
ATOM      5  C   UNL     1      10.156   1.553  23.484  0.00  0.00    +0.000 A 
ATOM      6  C   UNL     1       8.748   2.005  24.185  0.00  0.00    +0.000 A 
ATOM      7  C   UNL     1       8.319   0.990  25.167  0.00  0.00    +0.000 A 
ATOM      8  C   UNL     1       8.676  -0.525  25.380  0.00  0.00    +0.000 A 
ATOM      9  C   UNL     1       8.609  -0.658  26.997  0.00  0.00    +0.000 C 
ATOM     10  C   UNL     1       9.965  -0.924  24.728  0.00  0.00    +0.000 A 
ATOM     11  C   UNL     1      10.513   0.167  23.855  0.00  0.00    +0.000 A 
ENDBRANCH   1  10
BRANCH   1  12
ATOM     12  N   UNL     1       7.953  -2.404  23.487  0.00  0.00    +0.000 NA
ATOM     13  C   UNL     1       7.556  -3.600  24.123  0.00  0.00    +0.000 C 
ATOM     14  C   UNL     1       6.018  -3.643  24.194  0.00  0.00    +0.000 C 
ATOM     15  N   UNL     1       5.582  -3.779  22.783  0.00  0.00    +0.000 N 
ATOM     16  C   UNL     1       6.205  -2.942  21.802  0.00  0.00    +0.000 C 
ATOM     17  C   UNL     1       7.391  -2.186  22.251  0.00  0.00    +0.000 C 
ATOM     18  C   UNL     1       5.227  -5.067  22.428  0.00  0.00    +0.000 C 
ATOM     19  O   UNL     1       6.134  -5.838  22.140  0.00  0.00    +0.000 OA
BRANCH  18  20
ATOM     20  C   UNL     1       4.028  -5.581  23.215  0.00  0.00    +0.000 C 
ATOM     21 CL   UNL     1       4.529  -6.951  24.233  0.00  0.00    +0.000 Cl
ENDBRANCH  18  20
ENDBRANCH   1  12
TORSDOF 3
ENDMDL
MODEL 2
REMARK VINA RESULT:      -6.7      2.016      3.047
REMARK  Name = 
REMARK  3 active torsions:
REMARK  status: ('A' for Active; 'I' for Inactive)
REMARK    1  A    between atoms: C_7  and  S_9
REMARK    2  A    between atoms: S_9  and  N_12
REMARK    3  A    between atoms: C_18  and  C_20
REMARK                            x       y       z     vdW  Elec       q    Type
REMARK                         _______ _______ _______ _____ _____    ______ ____
ROOT
ATOM      1  S   UNL     1       9.599  -1.698  23.146  0.00  0.00    +0.000 S 
ATOM      2  O   UNL     1       9.847  -1.080  24.422  0.00  0.00    +0.000 OA
ATOM      3  O   UNL     1      10.629  -1.686  22.190  0.00  0.00    +0.000 OA
ENDROOT
BRANCH   1  10
ATOM      4  C   UNL     1       8.522   1.933  25.123  0.00  0.00    +0.000 C 
ATOM      5  C   UNL     1       7.730   1.577  23.875  0.00  0.00    +0.000 A 
ATOM      6  C   UNL     1       8.327   2.465  22.636  0.00  0.00    +0.000 A 
ATOM      7  C   UNL     1       8.569   1.604  21.462  0.00  0.00    +0.000 A 
ATOM      8  C   UNL     1       8.756   0.055  21.280  0.00  0.00    +0.000 A 
ATOM      9  C   UNL     1       8.071  -0.194  19.828  0.00  0.00    +0.000 C 
ATOM     10  C   UNL     1       8.208  -0.745  22.424  0.00  0.00    +0.000 A 
ATOM     11  C   UNL     1       7.791   0.132  23.569  0.00  0.00    +0.000 A 
ENDBRANCH   1  10
BRANCH   1  12
ATOM     12  N   UNL     1       9.046  -3.219  23.399  0.00  0.00    +0.000 NA
ATOM     13  C   UNL     1       7.791  -3.406  22.783  0.00  0.00    +0.000 C 
ATOM     14  C   UNL     1       7.374  -4.881  22.931  0.00  0.00    +0.000 C 
ATOM     15  N   UNL     1       7.133  -5.059  24.383  0.00  0.00    +0.000 N 
ATOM     16  C   UNL     1       8.096  -4.517  25.296  0.00  0.00    +0.000 C 
ATOM     17  C   UNL     1       9.119  -3.628  24.710  0.00  0.00    +0.000 C 
ATOM     18  C   UNL     1       5.798  -5.036  24.737  0.00  0.00    +0.000 C 
ATOM     19  O   UNL     1       5.271  -3.938  24.864  0.00  0.00    +0.000 OA
BRANCH  18  20
ATOM     20  C   UNL     1       5.008  -6.179  24.111  0.00  0.00    +0.000 C 
ATOM     21 CL   UNL     1       3.716  -5.514  23.084  0.00  0.00    +0.000 Cl
ENDBRANCH  18  20
ENDBRANCH   1  12
TORSDOF 3
ENDMDL
MODEL 3
REMARK VINA RESULT:      -6.6      2.411      3.429
REMARK  Name = 
REMARK  3 active torsions:
REMARK  status: ('A' for Active; 'I' for Inactive)
REMARK    1  A    between atoms: C_7  and  S_9
REMARK    2  A    between atoms: S_9  and  N_12
REMARK    3  A    between atoms: C_18  and  C_20
REMARK                            x       y       z     vdW  Elec       q    Type
REMARK                         _______ _______ _______ _____ _____    ______ ____
ROOT
ATOM      1  S   UNL     1       6.940   0.106  24.775  0.00  0.00    +0.000 S 
ATOM      2  O   UNL     1       5.510   0.016  24.638  0.00  0.00    +0.000 OA
ATOM      3  O   UNL     1       7.483   0.135  26.071  0.00  0.00    +0.000 OA
ENDROOT
BRANCH   1  10
ATOM      4  C   UNL     1      11.109   0.938  24.359  0.00  0.00    +0.000 C 
ATOM      5  C   UNL     1      10.149   1.983  23.813  0.00  0.00    +0.000 A 
ATOM      6  C   UNL     1      10.059   1.778  22.191  0.00  0.00    +0.000 A 
ATOM      7  C   UNL     1       8.649   1.767  21.756  0.00  0.00    +0.000 A 
ATOM      8  C   UNL     1       7.291   1.513  22.503  0.00  0.00    +0.000 A 
ATOM      9  C   UNL     1       6.285   2.513  21.712  0.00  0.00    +0.000 C 
ATOM     10  C   UNL     1       7.390   1.700  23.987  0.00  0.00    +0.000 A 
ATOM     11  C   UNL     1       8.811   1.889  24.434  0.00  0.00    +0.000 A 
ENDBRANCH   1  10
BRANCH   1  12
ATOM     12  N   UNL     1       7.628  -1.077  23.874  0.00  0.00    +0.000 NA
ATOM     13  C   UNL     1       6.642  -1.884  23.267  0.00  0.00    +0.000 C 
ATOM     14  C   UNL     1       7.328  -2.892  22.327  0.00  0.00    +0.000 C 
ATOM     15  N   UNL     1       8.079  -3.796  23.232  0.00  0.00    +0.000 N 
ATOM     16  C   UNL     1       8.844  -3.206  24.290  0.00  0.00    +0.000 C 
ATOM     17  C   UNL     1       8.626  -1.764  24.525  0.00  0.00    +0.000 C 
ATOM     18  C   UNL     1       7.453  -5.006  23.461  0.00  0.00    +0.000 C 
ATOM     19  O   UNL     1       6.567  -5.026  24.307  0.00  0.00    +0.000 OA
BRANCH  18  20
ATOM     20  C   UNL     1       7.299  -5.835  22.192  0.00  0.00    +0.000 C 
ATOM     21 CL   UNL     1       5.573  -5.976  21.782  0.00  0.00    +0.000 Cl
ENDBRANCH  18  20
ENDBRANCH   1  12
TORSDOF 3
ENDMDL
MODEL 4
REMARK VINA RESULT:      -6.6      2.008      2.493
REMARK  Name = 
REMARK  3 active torsions:
REMARK  status: ('A' for Active; 'I' for Inactive)
REMARK    1  A    between atoms: C_7  and  S_9
REMARK    2  A    between atoms: S_9  and  N_12
REMARK    3  A    between atoms: C_18  and  C_20
REMARK                            x       y       z     vdW  Elec       q    Type
REMARK                         _______ _______ _______ _____ _____    ______ ____
ROOT
ATOM      1  S   UNL     1       9.285  -1.891  23.106  0.00  0.00    +0.000 S 
ATOM      2  O   UNL     1      10.519  -1.969  22.370  0.00  0.00    +0.000 OA
ATOM      3  O   UNL     1       8.191  -1.246  22.505  0.00  0.00    +0.000 OA
ENDROOT
BRANCH   1  10
ATOM      4  C   UNL     1      10.411   2.189  22.530  0.00  0.00    +0.000 C 
ATOM      5  C   UNL     1      10.364   1.693  23.966  0.00  0.00    +0.000 A 
ATOM      6  C   UNL     1       8.956   2.206  24.625  0.00  0.00    +0.000 A 
ATOM      7  C   UNL     1       8.281   1.092  25.317  0.00  0.00    +0.000 A 
ATOM      8  C   UNL     1       8.402  -0.471  25.220  0.00  0.00    +0.000 A 
ATOM      9  C   UNL     1       8.126  -0.922  26.756  0.00  0.00    +0.000 C 
ATOM     10  C   UNL     1       9.694  -0.926  24.611  0.00  0.00    +0.000 A 
ATOM     11  C   UNL     1      10.484   0.221  24.052  0.00  0.00    +0.000 A 
ENDBRANCH   1  10
BRANCH   1  12
ATOM     12  N   UNL     1       8.879  -3.397  23.607  0.00  0.00    +0.000 NA
ATOM     13  C   UNL     1       7.478  -3.567  23.604  0.00  0.00    +0.000 C 
ATOM     14  C   UNL     1       7.148  -5.030  23.950  0.00  0.00    +0.000 C 
ATOM     15  N   UNL     1       7.564  -5.182  25.366  0.00  0.00    +0.000 N 
ATOM     16  C   UNL     1       8.835  -4.649  25.756  0.00  0.00    +0.000 C 
ATOM     17  C   UNL     1       9.511  -3.789  24.764  0.00  0.00    +0.000 C 
ATOM     18  C   UNL     1       6.516  -5.128  26.266  0.00  0.00    +0.000 C 
ATOM     19  O   UNL     1       6.112  -4.016  26.586  0.00  0.00    +0.000 OA
BRANCH  18  20
ATOM     20  C   UNL     1       5.518  -6.262  26.072  0.00  0.00    +0.000 C 
ATOM     21 CL   UNL     1       5.013  -6.886  27.661  0.00  0.00    +0.000 Cl
ENDBRANCH  18  20
ENDBRANCH   1  12
TORSDOF 3
ENDMDL
MODEL 5
REMARK VINA RESULT:      -6.5      2.421      3.423
REMARK  Name = 
REMARK  3 active torsions:
REMARK  status: ('A' for Active; 'I' for Inactive)
REMARK    1  A    between atoms: C_7  and  S_9
REMARK    2  A    between atoms: S_9  and  N_12
REMARK    3  A    between atoms: C_18  and  C_20
REMARK                            x       y       z     vdW  Elec       q    Type
REMARK                         _______ _______ _______ _____ _____    ______ ____
ROOT
ATOM      1  S   UNL     1       9.488  -1.969  23.630  0.00  0.00    +0.000 S 
ATOM      2  O   UNL     1       9.979  -1.429  24.870  0.00  0.00    +0.000 OA
ATOM      3  O   UNL     1      10.366  -2.021  22.534  0.00  0.00    +0.000 OA
ENDROOT
BRANCH   1  10
ATOM      4  C   UNL     1      10.277   2.228  23.756  0.00  0.00    +0.000 C 
ATOM      5  C   UNL     1       8.893   1.810  23.285  0.00  0.00    +0.000 A 
ATOM      6  C   UNL     1       8.877   1.893  21.650  0.00  0.00    +0.000 A 
ATOM      7  C   UNL     1       8.302   0.659  21.082  0.00  0.00    +0.000 A 
ATOM      8  C   UNL     1       8.093  -0.793  21.645  0.00  0.00    +0.000 A 
ATOM      9  C   UNL     1       6.708  -1.234  20.921  0.00  0.00    +0.000 C 
ATOM     10  C   UNL     1       8.115  -0.854  23.143  0.00  0.00    +0.000 A 
ATOM     11  C   UNL     1       8.532   0.454  23.750  0.00  0.00    +0.000 A 
ENDBRANCH   1  10
BRANCH   1  12
ATOM     12  N   UNL     1       8.822  -3.437  23.924  0.00  0.00    +0.000 NA
ATOM     13  C   UNL     1       7.485  -3.304  24.353  0.00  0.00    +0.000 C 
ATOM     14  C   UNL     1       6.860  -4.705  24.487  0.00  0.00    +0.000 C 
ATOM     15  N   UNL     1       7.581  -5.330  25.622  0.00  0.00    +0.000 N 
ATOM     16  C   UNL     1       9.008  -5.202  25.666  0.00  0.00    +0.000 C 
ATOM     17  C   UNL     1       9.606  -4.258  24.700  0.00  0.00    +0.000 C 
ATOM     18  C   UNL     1       6.877  -5.313  26.811  0.00  0.00    +0.000 C 
ATOM     19  O   UNL     1       6.907  -4.278  27.464  0.00  0.00    +0.000 OA
BRANCH  18  20
ATOM     20  C   UNL     1       5.584  -6.116  26.736  0.00  0.00    +0.000 C 
ATOM     21 CL   UNL     1       5.252  -6.854  28.321  0.00  0.00    +0.000 Cl
ENDBRANCH  18  20
ENDBRANCH   1  12
TORSDOF 3
ENDMDL
MODEL 6
REMARK VINA RESULT:      -6.5      3.141      5.929
REMARK  Name = 
REMARK  3 active torsions:
REMARK  status: ('A' for Active; 'I' for Inactive)
REMARK    1  A    between atoms: C_7  and  S_9
REMARK    2  A    between atoms: S_9  and  N_12
REMARK    3  A    between atoms: C_18  and  C_20
REMARK                            x       y       z     vdW  Elec       q    Type
REMARK                         _______ _______ _______ _____ _____    ______ ____
ROOT
ATOM      1  S   UNL     1       8.802  -3.221  24.576  0.00  0.00    +0.000 S 
ATOM      2  O   UNL     1      10.038  -3.161  23.842  0.00  0.00    +0.000 OA
ATOM      3  O   UNL     1       8.826  -2.909  25.946  0.00  0.00    +0.000 OA
ENDROOT
BRANCH   1  10
ATOM      4  C   UNL     1       6.238  -4.672  27.670  0.00  0.00    +0.000 C 
ATOM      5  C   UNL     1       6.588  -5.652  26.561  0.00  0.00    +0.000 A 
ATOM      6  C   UNL     1       5.320  -5.707  25.527  0.00  0.00    +0.000 A 
ATOM      7  C   UNL     1       5.792  -5.575  24.135  0.00  0.00    +0.000 A 
ATOM      8  C   UNL     1       7.112  -5.019  23.490  0.00  0.00    +0.000 A 
ATOM      9  C   UNL     1       7.285  -5.988  22.199  0.00  0.00    +0.000 C 
ATOM     10  C   UNL     1       8.262  -4.969  24.450  0.00  0.00    +0.000 A 
ATOM     11  C   UNL     1       7.832  -5.274  25.856  0.00  0.00    +0.000 A 
ENDBRANCH   1  10
BRANCH   1  12
ATOM     12  N   UNL     1       7.680  -2.323  23.787  0.00  0.00    +0.000 NA
ATOM     13  C   UNL     1       8.003  -2.208  22.418  0.00  0.00    +0.000 C 
ATOM     14  C   UNL     1       6.859  -1.475  21.693  0.00  0.00    +0.000 C 
ATOM     15  N   UNL     1       6.901  -0.093  22.230  0.00  0.00    +0.000 N 
ATOM     16  C   UNL     1       7.043   0.076  23.645  0.00  0.00    +0.000 C 
ATOM     17  C   UNL     1       7.371  -1.140  24.416  0.00  0.00    +0.000 C 
ATOM     18  C   UNL     1       7.512   0.816  21.388  0.00  0.00    +0.000 C 
ATOM     19  O   UNL     1       8.737   0.857  21.404  0.00  0.00    +0.000 OA
BRANCH  18  20
ATOM     20  C   UNL     1       6.774   0.978  20.065  0.00  0.00    +0.000 C 
ATOM     21 CL   UNL     1       7.653   0.110  18.784  0.00  0.00    +0.000 Cl
ENDBRANCH  18  20
ENDBRANCH   1  12
TORSDOF 3
ENDMDL
MODEL 7
REMARK VINA RESULT:      -6.4      2.381      3.098
REMARK  Name = 
REMARK  3 active torsions:
REMARK  status: ('A' for Active; 'I' for Inactive)
REMARK    1  A    between atoms: C_7  and  S_9
REMARK    2  A    between atoms: S_9  and  N_12
REMARK    3  A    between atoms: C_18  and  C_20
REMARK                            x       y       z     vdW  Elec       q    Type
REMARK                         _______ _______ _______ _____ _____    ______ ____
ROOT
ATOM      1  S   UNL     1       6.498  -2.165  22.370  0.00  0.00    +0.000 S 
ATOM      2  O   UNL     1       6.428  -1.522  21.085  0.00  0.00    +0.000 OA
ATOM      3  O   UNL     1       6.164  -1.413  23.509  0.00  0.00    +0.000 OA
ENDROOT
BRANCH   1  10
ATOM      4  C   UNL     1       9.416   0.859  21.603  0.00  0.00    +0.000 C 
ATOM      5  C   UNL     1       9.943  -0.501  22.034  0.00  0.00    +0.000 A 
ATOM      6  C   UNL     1      10.312  -0.410  23.627  0.00  0.00    +0.000 A 
ATOM      7  C   UNL     1       9.741  -1.563  24.349  0.00  0.00    +0.000 A 
ATOM      8  C   UNL     1       8.587  -2.578  24.023  0.00  0.00    +0.000 A 
ATOM      9  C   UNL     1       9.142  -3.943  24.706  0.00  0.00    +0.000 C 
ATOM     10  C   UNL     1       8.257  -2.647  22.562  0.00  0.00    +0.000 A 
ATOM     11  C   UNL     1       8.968  -1.583  21.777  0.00  0.00    +0.000 A 
ENDBRANCH   1  10
BRANCH   1  12
ATOM     12  N   UNL     1       5.632  -3.555  22.308  0.00  0.00    +0.000 NA
ATOM     13  C   UNL     1       4.795  -3.676  23.438  0.00  0.00    +0.000 C 
ATOM     14  C   UNL     1       3.907  -4.923  23.272  0.00  0.00    +0.000 C 
ATOM     15  N   UNL     1       4.848  -6.066  23.351  0.00  0.00    +0.000 N 
ATOM     16  C   UNL     1       6.070  -5.985  22.608  0.00  0.00    +0.000 C 
ATOM     17  C   UNL     1       6.386  -4.668  22.018  0.00  0.00    +0.000 C 
ATOM     18  C   UNL     1       4.859  -6.699  24.579  0.00  0.00    +0.000 C 
ATOM     19  O   UNL     1       5.531  -6.187  25.466  0.00  0.00    +0.000 OA
BRANCH  18  20
ATOM     20  C   UNL     1       3.516  -7.330  24.925  0.00  0.00    +0.000 C 
ATOM     21 CL   UNL     1       2.916  -6.647  26.455  0.00  0.00    +0.000 Cl
ENDBRANCH  18  20
ENDBRANCH   1  12
TORSDOF 3
ENDMDL
MODEL 8
REMARK VINA RESULT:      -6.4      3.214      4.899
REMARK  Name = 
REMARK  3 active torsions:
REMARK  status: ('A' for Active; 'I' for Inactive)
REMARK    1  A    between atoms: C_7  and  S_9
REMARK    2  A    between atoms: S_9  and  N_12
REMARK    3  A    between atoms: C_18  and  C_20
REMARK                            x       y       z     vdW  Elec       q    Type
REMARK                         _______ _______ _______ _____ _____    ______ ____
ROOT
ATOM      1  S   UNL     1       9.754  -1.378  23.542  0.00  0.00    +0.000 S 
ATOM      2  O   UNL     1      10.288  -2.355  22.631  0.00  0.00    +0.000 OA
ATOM      3  O   UNL     1      10.630  -0.416  24.073  0.00  0.00    +0.000 OA
ENDROOT
BRANCH   1  10
ATOM      4  C   UNL     1       5.794  -0.495  24.881  0.00  0.00    +0.000 C 
ATOM      5  C   UNL     1       6.529  -1.604  25.616  0.00  0.00    +0.000 A 
ATOM      6  C   UNL     1       5.982  -3.034  25.037  0.00  0.00    +0.000 A 
ATOM      7  C   UNL     1       7.115  -3.921  24.712  0.00  0.00    +0.000 A 
ATOM      8  C   UNL     1       8.640  -3.665  24.432  0.00  0.00    +0.000 A 
ATOM      9  C   UNL     1       9.321  -4.999  25.060  0.00  0.00    +0.000 C 
ATOM     10  C   UNL     1       9.126  -2.351  24.964  0.00  0.00    +0.000 A 
ATOM     11  C   UNL     1       7.996  -1.497  25.464  0.00  0.00    +0.000 A 
ENDBRANCH   1  10
BRANCH   1  12
ATOM     12  N   UNL     1       8.452  -0.668  22.845  0.00  0.00    +0.000 NA
ATOM     13  C   UNL     1       7.926  -1.482  21.819  0.00  0.00    +0.000 C 
ATOM     14  C   UNL     1       6.631  -0.842  21.285  0.00  0.00    +0.000 C 
ATOM     15  N   UNL     1       7.077   0.403  20.615  0.00  0.00    +0.000 N 
ATOM     16  C   UNL     1       8.027   1.231  21.296  0.00  0.00    +0.000 C 
ATOM     17  C   UNL     1       8.652   0.648  22.501  0.00  0.00    +0.000 C 
ATOM     18  C   UNL     1       7.149   0.304  19.239  0.00  0.00    +0.000 C 
ATOM     19  O   UNL     1       8.154  -0.216  18.768  0.00  0.00    +0.000 OA
BRANCH  18  20
ATOM     20  C   UNL     1       5.794   0.031  18.599  0.00  0.00    +0.000 C 
ATOM     21 CL   UNL     1       4.681   1.367  18.974  0.00  0.00    +0.000 Cl
ENDBRANCH  18  20
ENDBRANCH   1  12
TORSDOF 3
ENDMDL
MODEL 9
REMARK VINA RESULT:      -6.3      3.501      6.732
REMARK  Name = 
REMARK  3 active torsions:
REMARK  status: ('A' for Active; 'I' for Inactive)
REMARK    1  A    between atoms: C_7  and  S_9
REMARK    2  A    between atoms: S_9  and  N_12
REMARK    3  A    between atoms: C_18  and  C_20
REMARK                            x       y       z     vdW  Elec       q    Type
REMARK                         _______ _______ _______ _____ _____    ______ ____
ROOT
ATOM      1  S   UNL     1       6.806  -2.379  22.876  0.00  0.00    +0.000 S 
ATOM      2  O   UNL     1       5.921  -2.127  23.983  0.00  0.00    +0.000 OA
ATOM      3  O   UNL     1       6.330  -2.139  21.576  0.00  0.00    +0.000 OA
ENDROOT
BRANCH   1  10
ATOM      4  C   UNL     1       6.794  -4.146  26.766  0.00  0.00    +0.000 C 
ATOM      5  C   UNL     1       7.081  -5.076  25.597  0.00  0.00    +0.000 A 
ATOM      6  C   UNL     1       5.702  -5.889  25.257  0.00  0.00    +0.000 A 
ATOM      7  C   UNL     1       5.430  -5.849  23.807  0.00  0.00    +0.000 A 
ATOM      8  C   UNL     1       5.918  -4.914  22.643  0.00  0.00    +0.000 A 
ATOM      9  C   UNL     1       5.988  -5.948  21.393  0.00  0.00    +0.000 C 
ATOM     10  C   UNL     1       7.179  -4.172  22.970  0.00  0.00    +0.000 A 
ATOM     11  C   UNL     1       7.571  -4.344  24.409  0.00  0.00    +0.000 A 
ENDBRANCH   1  10
BRANCH   1  12
ATOM     12  N   UNL     1       8.216  -1.589  23.143  0.00  0.00    +0.000 NA
ATOM     13  C   UNL     1       7.982  -0.327  23.729  0.00  0.00    +0.000 C 
ATOM     14  C   UNL     1       9.334   0.320  24.084  0.00  0.00    +0.000 C 
ATOM     15  N   UNL     1       9.969   0.602  22.773  0.00  0.00    +0.000 N 
ATOM     16  C   UNL     1       9.935  -0.423  21.774  0.00  0.00    +0.000 C 
ATOM     17  C   UNL     1       9.064  -1.581  22.060  0.00  0.00    +0.000 C 
ATOM     18  C   UNL     1       9.869   1.921  22.375  0.00  0.00    +0.000 C 
ATOM     19  O   UNL     1       8.817   2.269  21.851  0.00  0.00    +0.000 OA
BRANCH  18  20
ATOM     20  C   UNL     1      10.585   2.875  23.322  0.00  0.00    +0.000 C 
ATOM     21 CL   UNL     1       9.414   4.030  24.000  0.00  0.00    +0.000 Cl
ENDBRANCH  18  20
ENDBRANCH   1  12
TORSDOF 3
ENDMDL
