MODEL 1
REMARK VINA RESULT:      -6.2      0.000      0.000
REMARK  Name = 
REMARK  3 active torsions:
REMARK  status: ('A' for Active; 'I' for Inactive)
REMARK    1  A    between atoms: C_5  and  N_8
REMARK    2  A    between atoms: N_8  and  C_9
REMARK    3  A    between atoms: C_16  and  C_18
REMARK                            x       y       z     vdW  Elec       q    Type
REMARK                         _______ _______ _______ _____ _____    ______ ____
ROOT
ATOM      1  N   UNL     1       7.623  -0.407  20.772  0.00  0.00    +0.000 N 
ATOM      2  C   UNL     1       7.144  -0.315  19.524  0.00  0.00    +0.000 C 
ATOM      3  O   UNL     1       7.918  -0.129  18.591  0.00  0.00    +0.000 OA
ENDROOT
BRANCH   1   8
ATOM      4  F   UNL     1       8.857   1.933  24.727  0.00  0.00    +0.000 F 
ATOM      5  C   UNL     1       9.177   2.453  23.535  0.00  0.00    +0.000 A 
ATOM      6  C   UNL     1       7.662   2.604  22.922  0.00  0.00    +0.000 A 
ATOM      7  C   UNL     1       7.582   1.822  21.655  0.00  0.00    +0.000 A 
ATOM      8  C   UNL     1       8.350   0.758  20.979  0.00  0.00    +0.000 A 
ATOM      9  C   UNL     1       9.733   0.550  21.572  0.00  0.00    +0.000 A 
ATOM     10  C   UNL     1       9.958   1.472  22.788  0.00  0.00    +0.000 A 
ENDBRANCH   1   8
BRANCH   1  11
ATOM     11  C   UNL     1       6.800  -0.893  21.861  0.00  0.00    +0.000 C 
ATOM     12  C   UNL     1       6.111  -2.201  21.365  0.00  0.00    +0.000 C 
ATOM     13  S   UNL     1       6.631  -3.444  22.609  0.00  0.00    +0.000 S 
ATOM     14  O   UNL     1       7.413  -4.407  21.962  0.00  0.00    +0.000 OA
ATOM     15  O   UNL     1       5.488  -3.805  23.342  0.00  0.00    +0.000 OA
ATOM     16  C   UNL     1       7.717  -2.449  23.696  0.00  0.00    +0.000 C 
ATOM     17  C   UNL     1       7.646  -1.154  23.060  0.00  0.00    +0.000 C 
ENDBRANCH   1  11
BRANCH   2  18
ATOM     18  C   UNL     1       5.661  -0.154  19.339  0.00  0.00    +0.000 C 
ATOM     19 CL   UNL     1       5.249   1.512  18.884  0.00  0.00    +0.000 Cl
ENDBRANCH   2  18
TORSDOF 3
ENDMDL
MODEL 2
REMARK VINA RESULT:      -6.1      3.348      5.190
REMARK  Name = 
REMARK  3 active torsions:
REMARK  status: ('A' for Active; 'I' for Inactive)
REMARK    1  A    between atoms: C_5  and  N_8
REMARK    2  A    between atoms: N_8  and  C_9
REMARK    3  A    between atoms: C_16  and  C_18
REMARK                            x       y       z     vdW  Elec       q    Type
REMARK                         _______ _______ _______ _____ _____    ______ ____
ROOT
ATOM      1  N   UNL     1       8.495  -1.644  22.103  0.00  0.00    +0.000 N 
ATOM      2  C   UNL     1       9.723  -1.153  22.317  0.00  0.00    +0.000 C 
ATOM      3  O   UNL     1      10.681  -1.917  22.364  0.00  0.00    +0.000 OA
ENDROOT
BRANCH   1   8
ATOM      4  F   UNL     1       4.553  -3.508  24.007  0.00  0.00    +0.000 F 
ATOM      5  C   UNL     1       5.747  -3.868  24.496  0.00  0.00    +0.000 A 
ATOM      6  C   UNL     1       6.273  -2.386  24.967  0.00  0.00    +0.000 A 
ATOM      7  C   UNL     1       7.553  -2.091  24.263  0.00  0.00    +0.000 A 
ATOM      8  C   UNL     1       8.298  -2.598  23.092  0.00  0.00    +0.000 A 
ATOM      9  C   UNL     1       7.785  -3.939  22.593  0.00  0.00    +0.000 A 
ATOM     10  C   UNL     1       6.560  -4.400  23.408  0.00  0.00    +0.000 A 
ENDBRANCH   1   8
BRANCH   1  11
ATOM     11  C   UNL     1       7.384  -0.776  21.769  0.00  0.00    +0.000 C 
ATOM     12  C   UNL     1       7.950   0.365  20.870  0.00  0.00    +0.000 C 
ATOM     13  S   UNL     1       6.931   0.241  19.350  0.00  0.00    +0.000 S 
ATOM     14  O   UNL     1       7.775  -0.101  18.287  0.00  0.00    +0.000 OA
ATOM     15  O   UNL     1       6.119   1.387  19.295  0.00  0.00    +0.000 OA
ATOM     16  C   UNL     1       5.866  -1.197  19.733  0.00  0.00    +0.000 C 
ATOM     17  C   UNL     1       6.330  -1.551  21.054  0.00  0.00    +0.000 C 
ENDBRANCH   1  11
BRANCH   2  18
ATOM     18  C   UNL     1       9.851   0.272  22.778  0.00  0.00    +0.000 C 
ATOM     19 CL   UNL     1      10.398   0.353  24.466  0.00  0.00    +0.000 Cl
ENDBRANCH   2  18
TORSDOF 3
ENDMDL
MODEL 3
REMARK VINA RESULT:      -5.8      3.311      4.536
REMARK  Name = 
REMARK  3 active torsions:
REMARK  status: ('A' for Active; 'I' for Inactive)
REMARK    1  A    between atoms: C_5  and  N_8
REMARK    2  A    between atoms: N_8  and  C_9
REMARK    3  A    between atoms: C_16  and  C_18
REMARK                            x       y       z     vdW  Elec       q    Type
REMARK                         _______ _______ _______ _____ _____    ______ ____
ROOT
ATOM      1  N   UNL     1       8.011  -2.068  23.928  0.00  0.00    +0.000 N 
ATOM      2  C   UNL     1       8.582  -2.684  24.972  0.00  0.00    +0.000 C 
ATOM      3  O   UNL     1       8.453  -2.214  26.097  0.00  0.00    +0.000 OA
ENDROOT
BRANCH   1   8
ATOM      4  F   UNL     1       8.131   1.370  20.641  0.00  0.00    +0.000 F 
ATOM      5  C   UNL     1       8.692   1.591  21.838  0.00  0.00    +0.000 A 
ATOM      6  C   UNL     1       9.802   0.382  21.812  0.00  0.00    +0.000 A 
ATOM      7  C   UNL     1       9.566  -0.504  22.987  0.00  0.00    +0.000 A 
ATOM      8  C   UNL     1       8.485  -0.764  23.959  0.00  0.00    +0.000 A 
ATOM      9  C   UNL     1       7.408   0.308  23.955  0.00  0.00    +0.000 A 
ATOM     10  C   UNL     1       7.690   1.372  22.875  0.00  0.00    +0.000 A 
ENDBRANCH   1   8
BRANCH   1  11
ATOM     11  C   UNL     1       7.903  -2.718  22.637  0.00  0.00    +0.000 C 
ATOM     12  C   UNL     1       7.283  -4.127  22.886  0.00  0.00    +0.000 C 
ATOM     13  S   UNL     1       5.790  -4.119  21.821  0.00  0.00    +0.000 S 
ATOM     14  O   UNL     1       4.665  -4.219  22.647  0.00  0.00    +0.000 OA
ATOM     15  O   UNL     1       6.013  -5.037  20.780  0.00  0.00    +0.000 OA
ATOM     16  C   UNL     1       5.846  -2.431  21.116  0.00  0.00    +0.000 C 
ATOM     17  C   UNL     1       7.043  -1.906  21.730  0.00  0.00    +0.000 C 
ENDBRANCH   1  11
BRANCH   2  18
ATOM     18  C   UNL     1       9.598  -3.758  24.699  0.00  0.00    +0.000 C 
ATOM     19 CL   UNL     1       9.316  -5.182  25.721  0.00  0.00    +0.000 Cl
ENDBRANCH   2  18
TORSDOF 3
ENDMDL
MODEL 4
REMARK VINA RESULT:      -5.8      2.760      4.332
REMARK  Name = 
REMARK  3 active torsions:
REMARK  status: ('A' for Active; 'I' for Inactive)
REMARK    1  A    between atoms: C_5  and  N_8
REMARK    2  A    between atoms: N_8  and  C_9
REMARK    3  A    between atoms: C_16  and  C_18
REMARK                            x       y       z     vdW  Elec       q    Type
REMARK                         _______ _______ _______ _____ _____    ______ ____
ROOT
ATOM      1  N   UNL     1       6.664  -1.407  22.289  0.00  0.00    +0.000 N 
ATOM      2  C   UNL     1       6.024  -2.446  22.842  0.00  0.00    +0.000 C 
ATOM      3  O   UNL     1       5.480  -2.311  23.934  0.00  0.00    +0.000 OA
ENDROOT
BRANCH   1   8
ATOM      4  F   UNL     1      10.503   1.389  21.999  0.00  0.00    +0.000 F 
ATOM      5  C   UNL     1      10.215   0.794  23.165  0.00  0.00    +0.000 A 
ATOM      6  C   UNL     1      10.289  -0.768  22.664  0.00  0.00    +0.000 A 
ATOM      7  C   UNL     1       8.973  -1.415  22.935  0.00  0.00    +0.000 A 
ATOM      8  C   UNL     1       7.591  -0.994  23.237  0.00  0.00    +0.000 A 
ATOM      9  C   UNL     1       7.486   0.468  23.637  0.00  0.00    +0.000 A 
ATOM     10  C   UNL     1       8.860   1.163  23.560  0.00  0.00    +0.000 A 
ENDBRANCH   1   8
BRANCH   1  11
ATOM     11  C   UNL     1       7.080  -1.431  20.901  0.00  0.00    +0.000 C 
ATOM     12  C   UNL     1       5.796  -1.644  20.043  0.00  0.00    +0.000 C 
ATOM     13  S   UNL     1       5.803  -0.196  18.917  0.00  0.00    +0.000 S 
ATOM     14  O   UNL     1       4.674   0.580  19.199  0.00  0.00    +0.000 OA
ATOM     15  O   UNL     1       6.052  -0.676  17.620  0.00  0.00    +0.000 OA
ATOM     16  C   UNL     1       7.288   0.709  19.486  0.00  0.00    +0.000 C 
ATOM     17  C   UNL     1       7.754  -0.148  20.551  0.00  0.00    +0.000 C 
ENDBRANCH   1  11
BRANCH   2  18
ATOM     18  C   UNL     1       6.235  -3.812  22.252  0.00  0.00    +0.000 C 
ATOM     19 CL   UNL     1       7.565  -4.664  23.065  0.00  0.00    +0.000 Cl
ENDBRANCH   2  18
TORSDOF 3
ENDMDL
MODEL 5
REMARK VINA RESULT:      -5.7      3.333      4.537
REMARK  Name = 
REMARK  3 active torsions:
REMARK  status: ('A' for Active; 'I' for Inactive)
REMARK    1  A    between atoms: C_5  and  N_8
REMARK    2  A    between atoms: N_8  and  C_9
REMARK    3  A    between atoms: C_16  and  C_18
REMARK                            x       y       z     vdW  Elec       q    Type
REMARK                         _______ _______ _______ _____ _____    ______ ____
ROOT
ATOM      1  N   UNL     1       8.213  -1.759  24.406  0.00  0.00    +0.000 N 
ATOM      2  C   UNL     1       8.481  -0.462  24.609  0.00  0.00    +0.000 C 
ATOM      3  O   UNL     1       7.919   0.386  23.924  0.00  0.00    +0.000 OA
ENDROOT
BRANCH   1   8
ATOM      4  F   UNL     1       7.930   1.055  20.579  0.00  0.00    +0.000 F 
ATOM      5  C   UNL     1       8.252  -0.235  20.418  0.00  0.00    +0.000 A 
ATOM      6  C   UNL     1       6.895  -0.906  21.056  0.00  0.00    +0.000 A 
ATOM      7  C   UNL     1       7.290  -1.785  22.193  0.00  0.00    +0.000 A 
ATOM      8  C   UNL     1       8.468  -1.986  23.060  0.00  0.00    +0.000 A 
ATOM      9  C   UNL     1       9.724  -1.316  22.527  0.00  0.00    +0.000 A 
ATOM     10  C   UNL     1       9.425  -0.533  21.233  0.00  0.00    +0.000 A 
ENDBRANCH   1   8
BRANCH   1  11
ATOM     11  C   UNL     1       8.632  -2.772  25.355  0.00  0.00    +0.000 C 
ATOM     12  C   UNL     1       7.350  -3.270  26.088  0.00  0.00    +0.000 C 
ATOM     13  S   UNL     1       7.362  -5.075  25.769  0.00  0.00    +0.000 S 
ATOM     14  O   UNL     1       6.234  -5.390  25.004  0.00  0.00    +0.000 OA
ATOM     15  O   UNL     1       7.613  -5.715  26.994  0.00  0.00    +0.000 OA
ATOM     16  C   UNL     1       8.847  -5.256  24.715  0.00  0.00    +0.000 C 
ATOM     17  C   UNL     1       9.309  -3.890  24.637  0.00  0.00    +0.000 C 
ENDBRANCH   1  11
BRANCH   2  18
ATOM     18  C   UNL     1       9.665  -0.102  25.462  0.00  0.00    +0.000 C 
ATOM     19 CL   UNL     1      10.721   1.063  24.635  0.00  0.00    +0.000 Cl
ENDBRANCH   2  18
TORSDOF 3
ENDMDL
MODEL 6
REMARK VINA RESULT:      -5.7      2.936      4.253
REMARK  Name = 
REMARK  3 active torsions:
REMARK  status: ('A' for Active; 'I' for Inactive)
REMARK    1  A    between atoms: C_5  and  N_8
REMARK    2  A    between atoms: N_8  and  C_9
REMARK    3  A    between atoms: C_16  and  C_18
REMARK                            x       y       z     vdW  Elec       q    Type
REMARK                         _______ _______ _______ _____ _____    ______ ____
ROOT
ATOM      1  N   UNL     1       6.961  -0.276  21.348  0.00  0.00    +0.000 N 
ATOM      2  C   UNL     1       6.537  -0.460  20.090  0.00  0.00    +0.000 C 
ATOM      3  O   UNL     1       5.843  -1.435  19.822  0.00  0.00    +0.000 OA
ENDROOT
BRANCH   1   8
ATOM      4  F   UNL     1      10.100  -1.276  24.781  0.00  0.00    +0.000 F 
ATOM      5  C   UNL     1       9.779  -2.226  23.893  0.00  0.00    +0.000 A 
ATOM      6  C   UNL     1      10.264  -1.454  22.527  0.00  0.00    +0.000 A 
ATOM      7  C   UNL     1       9.096  -1.336  21.608  0.00  0.00    +0.000 A 
ATOM      8  C   UNL     1       7.625  -1.445  21.692  0.00  0.00    +0.000 A 
ATOM      9  C   UNL     1       7.147  -2.095  22.980  0.00  0.00    +0.000 A 
ATOM     10  C   UNL     1       8.334  -2.419  23.910  0.00  0.00    +0.000 A 
ENDBRANCH   1   8
BRANCH   1  11
ATOM     11  C   UNL     1       7.543   0.983  21.769  0.00  0.00    +0.000 C 
ATOM     12  C   UNL     1       6.612   2.117  21.241  0.00  0.00    +0.000 C 
ATOM     13  S   UNL     1       6.162   3.030  22.766  0.00  0.00    +0.000 S 
ATOM     14  O   UNL     1       4.781   2.905  22.957  0.00  0.00    +0.000 OA
ATOM     15  O   UNL     1       6.776   4.292  22.694  0.00  0.00    +0.000 OA
ATOM     16  C   UNL     1       7.017   2.050  24.053  0.00  0.00    +0.000 C 
ATOM     17  C   UNL     1       7.646   1.022  23.256  0.00  0.00    +0.000 C 
ENDBRANCH   1  11
BRANCH   2  18
ATOM     18  C   UNL     1       7.159   0.365  18.999  0.00  0.00    +0.000 C 
ATOM     19 CL   UNL     1       5.929   0.961  17.865  0.00  0.00    +0.000 Cl
ENDBRANCH   2  18
TORSDOF 3
ENDMDL
MODEL 7
REMARK VINA RESULT:      -5.7      1.972      2.561
REMARK  Name = 
REMARK  3 active torsions:
REMARK  status: ('A' for Active; 'I' for Inactive)
REMARK    1  A    between atoms: C_5  and  N_8
REMARK    2  A    between atoms: N_8  and  C_9
REMARK    3  A    between atoms: C_16  and  C_18
REMARK                            x       y       z     vdW  Elec       q    Type
REMARK                         _______ _______ _______ _____ _____    ______ ____
ROOT
ATOM      1  N   UNL     1       8.224  -1.292  22.778  0.00  0.00    +0.000 N 
ATOM      2  C   UNL     1       8.379  -0.659  21.608  0.00  0.00    +0.000 C 
ATOM      3  O   UNL     1       9.416  -0.043  21.385  0.00  0.00    +0.000 OA
ENDROOT
BRANCH   1   8
ATOM      4  F   UNL     1      10.889   2.648  22.874  0.00  0.00    +0.000 F 
ATOM      5  C   UNL     1      10.215   2.290  23.974  0.00  0.00    +0.000 A 
ATOM      6  C   UNL     1      10.903   0.818  24.212  0.00  0.00    +0.000 A 
ATOM      7  C   UNL     1       9.829  -0.216  24.197  0.00  0.00    +0.000 A 
ATOM      8  C   UNL     1       8.425  -0.326  23.754  0.00  0.00    +0.000 A 
ATOM      9  C   UNL     1       7.785   1.021  23.460  0.00  0.00    +0.000 A 
ATOM     10  C   UNL     1       8.800   2.167  23.640  0.00  0.00    +0.000 A 
ENDBRANCH   1   8
BRANCH   1  11
ATOM     11  C   UNL     1       7.153  -2.247  22.982  0.00  0.00    +0.000 C 
ATOM     12  C   UNL     1       7.633  -3.606  22.388  0.00  0.00    +0.000 C 
ATOM     13  S   UNL     1       7.498  -4.754  23.812  0.00  0.00    +0.000 S 
ATOM     14  O   UNL     1       8.783  -5.206  24.131  0.00  0.00    +0.000 OA
ATOM     15  O   UNL     1       6.458  -5.655  23.526  0.00  0.00    +0.000 OA
ATOM     16  C   UNL     1       6.931  -3.631  25.141  0.00  0.00    +0.000 C 
ATOM     17  C   UNL     1       6.854  -2.372  24.437  0.00  0.00    +0.000 C 
ENDBRANCH   1  11
BRANCH   2  18
ATOM     18  C   UNL     1       7.173  -0.480  20.728  0.00  0.00    +0.000 C 
ATOM     19 CL   UNL     1       7.629   0.171  19.140  0.00  0.00    +0.000 Cl
ENDBRANCH   2  18
TORSDOF 3
ENDMDL
MODEL 8
REMARK VINA RESULT:      -5.6      4.188      6.527
REMARK  Name = 
REMARK  3 active torsions:
REMARK  status: ('A' for Active; 'I' for Inactive)
REMARK    1  A    between atoms: C_5  and  N_8
REMARK    2  A    between atoms: N_8  and  C_9
REMARK    3  A    between atoms: C_16  and  C_18
REMARK                            x       y       z     vdW  Elec       q    Type
REMARK                         _______ _______ _______ _____ _____    ______ ____
ROOT
ATOM      1  N   UNL     1       8.462  -3.157  23.347  0.00  0.00    +0.000 N 
ATOM      2  C   UNL     1       8.714  -4.128  24.236  0.00  0.00    +0.000 C 
ATOM      3  O   UNL     1       8.462  -5.293  23.947  0.00  0.00    +0.000 OA
ENDROOT
BRANCH   1   8
ATOM      4  F   UNL     1       5.613  -6.953  23.014  0.00  0.00    +0.000 F 
ATOM      5  C   UNL     1       5.130  -5.745  22.695  0.00  0.00    +0.000 A 
ATOM      6  C   UNL     1       6.172  -5.381  21.478  0.00  0.00    +0.000 A 
ATOM      7  C   UNL     1       6.880  -4.115  21.822  0.00  0.00    +0.000 A 
ATOM      8  C   UNL     1       7.119  -3.289  23.022  0.00  0.00    +0.000 A 
ATOM      9  C   UNL     1       6.213  -3.652  24.187  0.00  0.00    +0.000 A 
ATOM     10  C   UNL     1       5.309  -4.850  23.833  0.00  0.00    +0.000 A 
ENDBRANCH   1   8
BRANCH   1  11
ATOM     11  C   UNL     1       8.986  -1.817  23.526  0.00  0.00    +0.000 C 
ATOM     12  C   UNL     1       9.890  -1.512  22.293  0.00  0.00    +0.000 C 
ATOM     13  S   UNL     1       9.146   0.015  21.600  0.00  0.00    +0.000 S 
ATOM     14  O   UNL     1       8.657  -0.280  20.323  0.00  0.00    +0.000 OA
ATOM     15  O   UNL     1      10.065   1.058  21.805  0.00  0.00    +0.000 OA
ATOM     16  C   UNL     1       7.724   0.277  22.721  0.00  0.00    +0.000 C 
ATOM     17  C   UNL     1       7.863  -0.842  23.624  0.00  0.00    +0.000 C 
ENDBRANCH   1  11
BRANCH   2  18
ATOM     18  C   UNL     1       9.023  -3.735  25.654  0.00  0.00    +0.000 C 
ATOM     19 CL   UNL     1       8.325  -4.893  26.806  0.00  0.00    +0.000 Cl
ENDBRANCH   2  18
TORSDOF 3
ENDMDL
MODEL 9
REMARK VINA RESULT:      -5.5      3.217      4.288
REMARK  Name = 
REMARK  3 active torsions:
REMARK  status: ('A' for Active; 'I' for Inactive)
REMARK    1  A    between atoms: C_5  and  N_8
REMARK    2  A    between atoms: N_8  and  C_9
REMARK    3  A    between atoms: C_16  and  C_18
REMARK                            x       y       z     vdW  Elec       q    Type
REMARK                         _______ _______ _______ _____ _____    ______ ____
ROOT
ATOM      1  N   UNL     1       7.010  -2.594  23.432  0.00  0.00    +0.000 N 
ATOM      2  C   UNL     1       7.408  -1.590  24.224  0.00  0.00    +0.000 C 
ATOM      3  O   UNL     1       7.210  -0.430  23.878  0.00  0.00    +0.000 OA
ENDROOT
BRANCH   1   8
ATOM      4  F   UNL     1       8.152   1.429  21.161  0.00  0.00    +0.000 F 
ATOM      5  C   UNL     1       8.351   0.254  20.548  0.00  0.00    +0.000 A 
ATOM      6  C   UNL     1       6.800  -0.285  20.549  0.00  0.00    +0.000 A 
ATOM      7  C   UNL     1       6.751  -1.588  21.270  0.00  0.00    +0.000 A 
ATOM      8  C   UNL     1       7.605  -2.354  22.200  0.00  0.00    +0.000 A 
ATOM      9  C   UNL     1       9.030  -1.832  22.271  0.00  0.00    +0.000 A 
ATOM     10  C   UNL     1       9.204  -0.578  21.391  0.00  0.00    +0.000 A 
ENDBRANCH   1   8
BRANCH   1  11
ATOM     11  C   UNL     1       6.971  -3.961  23.910  0.00  0.00    +0.000 C 
ATOM     12  C   UNL     1       5.529  -4.218  24.444  0.00  0.00    +0.000 C 
ATOM     13  S   UNL     1       4.974  -5.665  23.463  0.00  0.00    +0.000 S 
ATOM     14  O   UNL     1       3.888  -5.266  22.676  0.00  0.00    +0.000 OA
ATOM     15  O   UNL     1       4.872  -6.754  24.345  0.00  0.00    +0.000 OA
ATOM     16  C   UNL     1       6.413  -5.947  22.369  0.00  0.00    +0.000 C 
ATOM     17  C   UNL     1       7.307  -4.897  22.800  0.00  0.00    +0.000 C 
ENDBRANCH   1  11
BRANCH   2  18
ATOM     18  C   UNL     1       8.335  -1.905  25.365  0.00  0.00    +0.000 C 
ATOM     19 CL   UNL     1       9.313  -0.490  25.807  0.00  0.00    +0.000 Cl
ENDBRANCH   2  18
TORSDOF 3
ENDMDL
