MODEL 1
REMARK VINA RESULT:      -6.0      0.000      0.000
REMARK  Name = 
REMARK  3 active torsions:
REMARK  status: ('A' for Active; 'I' for Inactive)
REMARK    1  A    between atoms: C_2  and  C_4
REMARK    2  A    between atoms: C_7  and  N_8
REMARK    3  A    between atoms: C_9  and  C_11
REMARK                            x       y       z     vdW  Elec       q    Type
REMARK                         _______ _______ _______ _____ _____    ______ ____
ROOT
ATOM      1  C   UNL     1       6.779  -0.190  18.984  0.00  0.00    +0.000 A 
ATOM      2  C   UNL     1       5.816  -1.357  19.615  0.00  0.00    +0.000 A 
ATOM      3  C   UNL     1       6.351  -1.763  20.933  0.00  0.00    +0.000 A 
ATOM      4  C   UNL     1       7.532  -1.490  21.786  0.00  0.00    +0.000 A 
ATOM      5  C   UNL     1       8.430  -0.356  21.214  0.00  0.00    +0.000 A 
ATOM      6  C   UNL     1       7.993  -0.020  19.801  0.00  0.00    +0.000 A 
ENDROOT
BRANCH   1   8
ATOM      7  N   UNL     1       6.132   1.339  17.483  0.00  0.00    +0.000 NA
ATOM      8  C   UNL     1       5.984   0.914  18.759  0.00  0.00    +0.000 C 
ATOM      9  O   UNL     1       5.399   1.616  19.553  0.00  0.00    +0.000 OA
ENDBRANCH   1   8
BRANCH   4  10
ATOM     10  N   UNL     1       7.160  -1.286  23.114  0.00  0.00    +0.000 NA
ATOM     11  C   UNL     1       8.150  -1.915  23.836  0.00  0.00    +0.000 C 
ATOM     12  O   UNL     1       8.749  -1.290  24.691  0.00  0.00    +0.000 OA
BRANCH  11  13
ATOM     13  C   UNL     1       8.305  -3.357  23.600  0.00  0.00    +0.000 C 
ATOM     14  C   UNL     1       7.124  -4.034  24.354  0.00  0.00    +0.000 C 
ATOM     15  C   UNL     1       7.828  -4.813  25.482  0.00  0.00    +0.000 C 
ATOM     16  C   UNL     1       9.312  -4.451  25.345  0.00  0.00    +0.000 C 
ATOM     17  O   UNL     1       9.525  -3.790  24.168  0.00  0.00    +0.000 OA
ENDBRANCH  11  13
ENDBRANCH   4  10
TORSDOF 3
ENDMDL
MODEL 2
REMARK VINA RESULT:      -5.7      1.804      2.481
REMARK  Name = 
REMARK  3 active torsions:
REMARK  status: ('A' for Active; 'I' for Inactive)
REMARK    1  A    between atoms: C_2  and  C_4
REMARK    2  A    between atoms: C_7  and  N_8
REMARK    3  A    between atoms: C_9  and  C_11
REMARK                            x       y       z     vdW  Elec       q    Type
REMARK                         _______ _______ _______ _____ _____    ______ ____
ROOT
ATOM      1  C   UNL     1       6.192  -0.459  20.046  0.00  0.00    +0.000 A 
ATOM      2  C   UNL     1       7.165   0.208  21.184  0.00  0.00    +0.000 A 
ATOM      3  C   UNL     1       7.539  -0.831  22.169  0.00  0.00    +0.000 A 
ATOM      4  C   UNL     1       7.219  -2.247  22.466  0.00  0.00    +0.000 A 
ATOM      5  C   UNL     1       6.328  -2.899  21.370  0.00  0.00    +0.000 A 
ATOM      6  C   UNL     1       5.810  -1.829  20.428  0.00  0.00    +0.000 A 
ENDROOT
BRANCH   1   8
ATOM      7  N   UNL     1       5.937  -0.532  17.824  0.00  0.00    +0.000 NA
ATOM      8  C   UNL     1       6.806  -0.268  18.826  0.00  0.00    +0.000 C 
ATOM      9  O   UNL     1       7.981  -0.127  18.569  0.00  0.00    +0.000 OA
ENDBRANCH   1   8
BRANCH   4  10
ATOM     10  N   UNL     1       8.372  -2.977  22.750  0.00  0.00    +0.000 NA
ATOM     11  C   UNL     1       7.929  -3.987  23.576  0.00  0.00    +0.000 C 
ATOM     12  O   UNL     1       8.172  -5.143  23.281  0.00  0.00    +0.000 OA
BRANCH  11  13
ATOM     13  C   UNL     1       7.308  -3.565  24.839  0.00  0.00    +0.000 C 
ATOM     14  C   UNL     1       8.408  -3.741  25.926  0.00  0.00    +0.000 C 
ATOM     15  C   UNL     1       7.858  -4.884  26.801  0.00  0.00    +0.000 C 
ATOM     16  C   UNL     1       6.563  -5.324  26.107  0.00  0.00    +0.000 C 
ATOM     17  O   UNL     1       6.227  -4.426  25.133  0.00  0.00    +0.000 OA
ENDBRANCH  11  13
ENDBRANCH   4  10
TORSDOF 3
ENDMDL
MODEL 3
REMARK VINA RESULT:      -5.6      2.978      3.605
REMARK  Name = 
REMARK  3 active torsions:
REMARK  status: ('A' for Active; 'I' for Inactive)
REMARK    1  A    between atoms: C_2  and  C_4
REMARK    2  A    between atoms: C_7  and  N_8
REMARK    3  A    between atoms: C_9  and  C_11
REMARK                            x       y       z     vdW  Elec       q    Type
REMARK                         _______ _______ _______ _____ _____    ______ ____
ROOT
ATOM      1  C   UNL     1       8.970   1.253  21.608  0.00  0.00    +0.000 A 
ATOM      2  C   UNL     1       7.378   0.967  21.877  0.00  0.00    +0.000 A 
ATOM      3  C   UNL     1       7.196  -0.458  22.228  0.00  0.00    +0.000 A 
ATOM      4  C   UNL     1       8.010  -1.694  22.315  0.00  0.00    +0.000 A 
ATOM      5  C   UNL     1       9.527  -1.425  22.101  0.00  0.00    +0.000 A 
ATOM      6  C   UNL     1       9.729  -0.009  21.598  0.00  0.00    +0.000 A 
ENDROOT
BRANCH   1   8
ATOM      7  N   UNL     1       8.337   3.109  22.688  0.00  0.00    +0.000 NA
ATOM      8  C   UNL     1       9.357   2.242  22.488  0.00  0.00    +0.000 C 
ATOM      9  O   UNL     1      10.464   2.528  22.886  0.00  0.00    +0.000 OA
ENDBRANCH   1   8
BRANCH   4  10
ATOM     10  N   UNL     1       7.732  -2.401  23.484  0.00  0.00    +0.000 NA
ATOM     11  C   UNL     1       7.796  -3.721  23.097  0.00  0.00    +0.000 C 
ATOM     12  O   UNL     1       8.530  -4.481  23.701  0.00  0.00    +0.000 OA
BRANCH  11  13
ATOM     13  C   UNL     1       6.850  -4.136  22.052  0.00  0.00    +0.000 C 
ATOM     14  C   UNL     1       5.473  -4.271  22.763  0.00  0.00    +0.000 C 
ATOM     15  C   UNL     1       5.190  -5.784  22.697  0.00  0.00    +0.000 C 
ATOM     16  C   UNL     1       6.442  -6.392  22.052  0.00  0.00    +0.000 C 
ATOM     17  O   UNL     1       7.238  -5.400  21.552  0.00  0.00    +0.000 OA
ENDBRANCH  11  13
ENDBRANCH   4  10
TORSDOF 3
ENDMDL
MODEL 4
REMARK VINA RESULT:      -5.6      3.505      4.322
REMARK  Name = 
REMARK  3 active torsions:
REMARK  status: ('A' for Active; 'I' for Inactive)
REMARK    1  A    between atoms: C_2  and  C_4
REMARK    2  A    between atoms: C_7  and  N_8
REMARK    3  A    between atoms: C_9  and  C_11
REMARK                            x       y       z     vdW  Elec       q    Type
REMARK                         _______ _______ _______ _____ _____    ______ ____
ROOT
ATOM      1  C   UNL     1      10.748   2.338  23.204  0.00  0.00    +0.000 A 
ATOM      2  C   UNL     1       9.719   1.692  22.104  0.00  0.00    +0.000 A 
ATOM      3  C   UNL     1       9.209   0.403  22.620  0.00  0.00    +0.000 A 
ATOM      4  C   UNL     1       9.427  -0.495  23.778  0.00  0.00    +0.000 A 
ATOM      5  C   UNL     1      10.371   0.128  24.845  0.00  0.00    +0.000 A 
ATOM      6  C   UNL     1      11.023   1.377  24.285  0.00  0.00    +0.000 A 
ENDROOT
BRANCH   1   8
ATOM      7  N   UNL     1      11.245   4.498  23.522  0.00  0.00    +0.000 NA
ATOM      8  C   UNL     1      10.251   3.579  23.543  0.00  0.00    +0.000 C 
ATOM      9  O   UNL     1       9.183   3.874  24.031  0.00  0.00    +0.000 OA
ENDBRANCH   1   8
BRANCH   4  10
ATOM     10  N   UNL     1       8.216  -0.945  24.303  0.00  0.00    +0.000 NA
ATOM     11  C   UNL     1       8.529  -2.168  24.855  0.00  0.00    +0.000 C 
ATOM     12  O   UNL     1       8.255  -2.379  26.022  0.00  0.00    +0.000 OA
BRANCH  11  13
ATOM     13  C   UNL     1       9.052  -3.181  23.928  0.00  0.00    +0.000 C 
ATOM     14  C   UNL     1       7.802  -3.838  23.276  0.00  0.00    +0.000 C 
ATOM     15  C   UNL     1       7.835  -5.278  23.826  0.00  0.00    +0.000 C 
ATOM     16  C   UNL     1       9.019  -5.301  24.800  0.00  0.00    +0.000 C 
ATOM     17  O   UNL     1       9.758  -4.160  24.664  0.00  0.00    +0.000 OA
ENDBRANCH  11  13
ENDBRANCH   4  10
TORSDOF 3
ENDMDL
MODEL 5
REMARK VINA RESULT:      -5.5      3.065      5.783
REMARK  Name = 
REMARK  3 active torsions:
REMARK  status: ('A' for Active; 'I' for Inactive)
REMARK    1  A    between atoms: C_2  and  C_4
REMARK    2  A    between atoms: C_7  and  N_8
REMARK    3  A    between atoms: C_9  and  C_11
REMARK                            x       y       z     vdW  Elec       q    Type
REMARK                         _______ _______ _______ _____ _____    ______ ____
ROOT
ATOM      1  C   UNL     1       5.309  -4.813  24.360  0.00  0.00    +0.000 A 
ATOM      2  C   UNL     1       4.891  -3.561  23.388  0.00  0.00    +0.000 A 
ATOM      3  C   UNL     1       6.112  -2.815  23.011  0.00  0.00    +0.000 A 
ATOM      4  C   UNL     1       7.560  -2.820  23.327  0.00  0.00    +0.000 A 
ATOM      5  C   UNL     1       7.971  -4.027  24.217  0.00  0.00    +0.000 A 
ATOM      6  C   UNL     1       6.729  -4.725  24.738  0.00  0.00    +0.000 A 
ENDROOT
BRANCH   1   8
ATOM      7  N   UNL     1       4.071  -5.656  22.697  0.00  0.00    +0.000 NA
ATOM      8  C   UNL     1       4.865  -5.966  23.748  0.00  0.00    +0.000 C 
ATOM      9  O   UNL     1       4.911  -7.111  24.138  0.00  0.00    +0.000 OA
ENDBRANCH   1   8
BRANCH   4  10
ATOM     10  N   UNL     1       8.330  -2.695  22.172  0.00  0.00    +0.000 NA
ATOM     11  C   UNL     1       9.249  -1.719  22.490  0.00  0.00    +0.000 C 
ATOM     12  O   UNL     1      10.435  -1.955  22.355  0.00  0.00    +0.000 OA
BRANCH  11  13
ATOM     13  C   UNL     1       8.699  -0.403  22.841  0.00  0.00    +0.000 C 
ATOM     14  C   UNL     1       8.884   0.481  21.574  0.00  0.00    +0.000 C 
ATOM     15  C   UNL     1       9.922   1.527  22.024  0.00  0.00    +0.000 C 
ATOM     16  C   UNL     1      10.309   1.112  23.448  0.00  0.00    +0.000 C 
ATOM     17  O   UNL     1       9.456   0.146  23.902  0.00  0.00    +0.000 OA
ENDBRANCH  11  13
ENDBRANCH   4  10
TORSDOF 3
ENDMDL
MODEL 6
REMARK VINA RESULT:      -5.4      3.032      6.089
REMARK  Name = 
REMARK  3 active torsions:
REMARK  status: ('A' for Active; 'I' for Inactive)
REMARK    1  A    between atoms: C_2  and  C_4
REMARK    2  A    between atoms: C_7  and  N_8
REMARK    3  A    between atoms: C_9  and  C_11
REMARK                            x       y       z     vdW  Elec       q    Type
REMARK                         _______ _______ _______ _____ _____    ______ ____
ROOT
ATOM      1  C   UNL     1       4.825  -5.655  23.134  0.00  0.00    +0.000 A 
ATOM      2  C   UNL     1       6.229  -6.075  22.399  0.00  0.00    +0.000 A 
ATOM      3  C   UNL     1       7.118  -4.893  22.347  0.00  0.00    +0.000 A 
ATOM      4  C   UNL     1       7.069  -3.450  22.678  0.00  0.00    +0.000 A 
ATOM      5  C   UNL     1       5.756  -3.051  23.411  0.00  0.00    +0.000 A 
ATOM      6  C   UNL     1       4.768  -4.200  23.351  0.00  0.00    +0.000 A 
ENDROOT
BRANCH   1   8
ATOM      7  N   UNL     1       5.417  -6.027  25.260  0.00  0.00    +0.000 NA
ATOM      8  C   UNL     1       4.676  -6.485  24.225  0.00  0.00    +0.000 C 
ATOM      9  O   UNL     1       4.189  -7.592  24.290  0.00  0.00    +0.000 OA
ENDBRANCH   1   8
BRANCH   4  10
ATOM     10  N   UNL     1       8.223  -3.045  23.347  0.00  0.00    +0.000 NA
ATOM     11  C   UNL     1       8.229  -1.676  23.198  0.00  0.00    +0.000 C 
ATOM     12  O   UNL     1       8.309  -0.972  24.188  0.00  0.00    +0.000 OA
BRANCH  11  13
ATOM     13  C   UNL     1       8.278  -1.175  21.818  0.00  0.00    +0.000 C 
ATOM     14  C   UNL     1       9.666  -0.488  21.670  0.00  0.00    +0.000 C 
ATOM     15  C   UNL     1       9.306   1.000  21.498  0.00  0.00    +0.000 C 
ATOM     16  C   UNL     1       7.781   1.057  21.653  0.00  0.00    +0.000 C 
ATOM     17  O   UNL     1       7.263  -0.207  21.641  0.00  0.00    +0.000 OA
ENDBRANCH  11  13
ENDBRANCH   4  10
TORSDOF 3
ENDMDL
MODEL 7
REMARK VINA RESULT:      -5.4      3.189      6.696
REMARK  Name = 
REMARK  3 active torsions:
REMARK  status: ('A' for Active; 'I' for Inactive)
REMARK    1  A    between atoms: C_2  and  C_4
REMARK    2  A    between atoms: C_7  and  N_8
REMARK    3  A    between atoms: C_9  and  C_11
REMARK                            x       y       z     vdW  Elec       q    Type
REMARK                         _______ _______ _______ _____ _____    ______ ____
ROOT
ATOM      1  C   UNL     1       6.315  -4.237  26.690  0.00  0.00    +0.000 A 
ATOM      2  C   UNL     1       5.537  -4.026  25.263  0.00  0.00    +0.000 A 
ATOM      3  C   UNL     1       6.426  -3.298  24.331  0.00  0.00    +0.000 A 
ATOM      4  C   UNL     1       7.753  -2.638  24.348  0.00  0.00    +0.000 A 
ATOM      5  C   UNL     1       8.514  -2.867  25.686  0.00  0.00    +0.000 A 
ATOM      6  C   UNL     1       7.579  -3.481  26.709  0.00  0.00    +0.000 A 
ENDROOT
BRANCH   1   8
ATOM      7  N   UNL     1       7.410  -5.887  27.732  0.00  0.00    +0.000 NA
ATOM      8  C   UNL     1       6.361  -5.594  26.930  0.00  0.00    +0.000 C 
ATOM      9  O   UNL     1       5.768  -6.494  26.377  0.00  0.00    +0.000 OA
ENDBRANCH   1   8
BRANCH   4  10
ATOM     10  N   UNL     1       8.500  -2.976  23.221  0.00  0.00    +0.000 NA
ATOM     11  C   UNL     1       9.270  -1.858  22.987  0.00  0.00    +0.000 C 
ATOM     12  O   UNL     1      10.478  -1.978  22.901  0.00  0.00    +0.000 OA
BRANCH  11  13
ATOM     13  C   UNL     1       8.538  -0.612  22.720  0.00  0.00    +0.000 C 
ATOM     14  C   UNL     1       9.118  -0.064  21.384  0.00  0.00    +0.000 C 
ATOM     15  C   UNL     1       9.839   1.227  21.817  0.00  0.00    +0.000 C 
ATOM     16  C   UNL     1       9.698   1.264  23.343  0.00  0.00    +0.000 C 
ATOM     17  O   UNL     1       8.807   0.313  23.754  0.00  0.00    +0.000 OA
ENDBRANCH  11  13
ENDBRANCH   4  10
TORSDOF 3
ENDMDL
MODEL 8
REMARK VINA RESULT:      -5.4      3.114      5.336
REMARK  Name = 
REMARK  3 active torsions:
REMARK  status: ('A' for Active; 'I' for Inactive)
REMARK    1  A    between atoms: C_2  and  C_4
REMARK    2  A    between atoms: C_7  and  N_8
REMARK    3  A    between atoms: C_9  and  C_11
REMARK                            x       y       z     vdW  Elec       q    Type
REMARK                         _______ _______ _______ _____ _____    ______ ____
ROOT
ATOM      1  C   UNL     1       6.153  -4.414  22.402  0.00  0.00    +0.000 A 
ATOM      2  C   UNL     1       5.895  -3.045  21.538  0.00  0.00    +0.000 A 
ATOM      3  C   UNL     1       6.950  -2.061  21.866  0.00  0.00    +0.000 A 
ATOM      4  C   UNL     1       8.094  -1.927  22.799  0.00  0.00    +0.000 A 
ATOM      5  C   UNL     1       8.370  -3.236  23.594  0.00  0.00    +0.000 A 
ATOM      6  C   UNL     1       7.226  -4.210  23.390  0.00  0.00    +0.000 A 
ENDROOT
BRANCH   1   8
ATOM      7  N   UNL     1       7.171  -6.357  21.959  0.00  0.00    +0.000 NA
ATOM      8  C   UNL     1       6.286  -5.445  21.495  0.00  0.00    +0.000 C 
ATOM      9  O   UNL     1       5.916  -5.511  20.345  0.00  0.00    +0.000 OA
ENDBRANCH   1   8
BRANCH   4  10
ATOM     10  N   UNL     1       9.221  -1.426  22.148  0.00  0.00    +0.000 NA
ATOM     11  C   UNL     1       9.598  -0.350  22.922  0.00  0.00    +0.000 C 
ATOM     12  O   UNL     1      10.738  -0.293  23.342  0.00  0.00    +0.000 OA
BRANCH  11  13
ATOM     13  C   UNL     1       8.607   0.726  23.060  0.00  0.00    +0.000 C 
ATOM     14  C   UNL     1       9.115   1.882  22.150  0.00  0.00    +0.000 C 
ATOM     15  C   UNL     1       9.483   2.988  23.159  0.00  0.00    +0.000 C 
ATOM     16  C   UNL     1       9.252   2.357  24.537  0.00  0.00    +0.000 C 
ATOM     17  O   UNL     1       8.590   1.169  24.402  0.00  0.00    +0.000 OA
ENDBRANCH  11  13
ENDBRANCH   4  10
TORSDOF 3
ENDMDL
MODEL 9
REMARK VINA RESULT:      -5.3      3.976      4.585
REMARK  Name = 
REMARK  3 active torsions:
REMARK  status: ('A' for Active; 'I' for Inactive)
REMARK    1  A    between atoms: C_2  and  C_4
REMARK    2  A    between atoms: C_7  and  N_8
REMARK    3  A    between atoms: C_9  and  C_11
REMARK                            x       y       z     vdW  Elec       q    Type
REMARK                         _______ _______ _______ _____ _____    ______ ____
ROOT
ATOM      1  C   UNL     1       9.402   3.029  23.272  0.00  0.00    +0.000 A 
ATOM      2  C   UNL     1       8.817   2.510  24.712  0.00  0.00    +0.000 A 
ATOM      3  C   UNL     1       8.903   1.034  24.765  0.00  0.00    +0.000 A 
ATOM      4  C   UNL     1       9.273  -0.090  23.874  0.00  0.00    +0.000 A 
ATOM      5  C   UNL     1       9.866   0.394  22.519  0.00  0.00    +0.000 A 
ATOM      6  C   UNL     1       9.658   1.889  22.375  0.00  0.00    +0.000 A 
ENDROOT
BRANCH   1   8
ATOM      7  N   UNL     1       9.955   5.093  23.939  0.00  0.00    +0.000 NA
ATOM      8  C   UNL     1      10.442   3.893  23.545  0.00  0.00    +0.000 C 
ATOM      9  O   UNL     1      11.618   3.789  23.280  0.00  0.00    +0.000 OA
ENDBRANCH   1   8
BRANCH   4  10
ATOM     10  N   UNL     1      10.081  -1.014  24.534  0.00  0.00    +0.000 NA
ATOM     11  C   UNL     1       9.490  -2.228  24.259  0.00  0.00    +0.000 C 
ATOM     12  O   UNL     1      10.161  -3.116  23.769  0.00  0.00    +0.000 OA
BRANCH  11  13
ATOM     13  C   UNL     1       8.104  -2.391  24.719  0.00  0.00    +0.000 C 
ATOM     14  C   UNL     1       8.195  -2.593  26.259  0.00  0.00    +0.000 C 
ATOM     15  C   UNL     1       7.734  -4.051  26.450  0.00  0.00    +0.000 C 
ATOM     16  C   UNL     1       7.512  -4.584  25.030  0.00  0.00    +0.000 C 
ATOM     17  O   UNL     1       7.556  -3.554  24.132  0.00  0.00    +0.000 OA
ENDBRANCH  11  13
ENDBRANCH   4  10
TORSDOF 3
ENDMDL
