MODEL 1
REMARK VINA RESULT:      -5.7      0.000      0.000
REMARK  Name = 
REMARK  1 active torsions:
REMARK  status: ('A' for Active; 'I' for Inactive)
REMARK    1  A    between atoms: C_9  and  S_12
REMARK                            x       y       z     vdW  Elec       q    Type
REMARK                         _______ _______ _______ _____ _____    ______ ____
ROOT
ATOM      1  C   UNL     1       8.219  -3.616  23.770  0.00  0.00    +0.000 C 
ATOM      2  N   UNL     1       8.600  -2.133  24.246  0.00  0.00    +0.000 N 
ATOM      3  C   UNL     1       8.769  -2.278  25.705  0.00  0.00    +0.000 C 
ATOM      4  C   UNL     1       8.589  -0.893  26.304  0.00  0.00    +0.000 C 
ATOM      5  C   UNL     1       8.672   0.166  25.259  0.00  0.00    +0.000 C 
ATOM      6  C   UNL     1       9.757  -0.247  24.245  0.00  0.00    +0.000 A 
ATOM      7  C   UNL     1      10.025   0.936  23.312  0.00  0.00    +0.000 A 
ATOM      8  C   UNL     1       9.798   0.614  21.863  0.00  0.00    +0.000 A 
ATOM      9  C   UNL     1       9.245  -0.542  21.118  0.00  0.00    +0.000 A 
ATOM     10  C   UNL     1       8.925  -1.711  21.982  0.00  0.00    +0.000 A 
ATOM     11  C   UNL     1       9.443  -1.500  23.467  0.00  0.00    +0.000 A 
ENDROOT
BRANCH   9  12
ATOM     12  S   UNL     1       7.694   0.116  20.443  0.00  0.00    +0.000 S 
ATOM     13  O   UNL     1       7.638   1.464  20.901  0.00  0.00    +0.000 OA
ATOM     14  O   UNL     1       6.653  -0.755  20.952  0.00  0.00    +0.000 OA
ATOM     15  N   UNL     1       7.738   0.036  18.830  0.00  0.00    +0.000 NA
ENDBRANCH   9  12
TORSDOF 1
ENDMDL
MODEL 2
REMARK VINA RESULT:      -5.7      2.414      3.763
REMARK  Name = 
REMARK  1 active torsions:
REMARK  status: ('A' for Active; 'I' for Inactive)
REMARK    1  A    between atoms: C_9  and  S_12
REMARK                            x       y       z     vdW  Elec       q    Type
REMARK                         _______ _______ _______ _____ _____    ______ ____
ROOT
ATOM      1  C   UNL     1       9.134   2.147  22.094  0.00  0.00    +0.000 C 
ATOM      2  N   UNL     1       8.907   0.561  22.163  0.00  0.00    +0.000 N 
ATOM      3  C   UNL     1       9.772   0.142  23.284  0.00  0.00    +0.000 C 
ATOM      4  C   UNL     1      10.053  -1.338  23.088  0.00  0.00    +0.000 C 
ATOM      5  C   UNL     1       9.115  -1.943  22.101  0.00  0.00    +0.000 C 
ATOM      6  C   UNL     1       7.726  -1.305  22.307  0.00  0.00    +0.000 A 
ATOM      7  C   UNL     1       6.706  -2.086  21.476  0.00  0.00    +0.000 A 
ATOM      8  C   UNL     1       5.973  -1.234  20.481  0.00  0.00    +0.000 A 
ATOM      9  C   UNL     1       6.090   0.167  20.009  0.00  0.00    +0.000 A 
ATOM     10  C   UNL     1       7.101   0.965  20.754  0.00  0.00    +0.000 A 
ATOM     11  C   UNL     1       7.665   0.171  22.008  0.00  0.00    +0.000 A 
ENDROOT
BRANCH   9  12
ATOM     12  S   UNL     1       6.660  -0.030  18.298  0.00  0.00    +0.000 S 
ATOM     13  O   UNL     1       5.957  -1.167  17.805  0.00  0.00    +0.000 OA
ATOM     14  O   UNL     1       8.099  -0.181  18.386  0.00  0.00    +0.000 OA
ATOM     15  N   UNL     1       6.298   1.303  17.458  0.00  0.00    +0.000 NA
ENDBRANCH   9  12
TORSDOF 1
ENDMDL
MODEL 3
REMARK VINA RESULT:      -5.6      3.113      4.608
REMARK  Name = 
REMARK  1 active torsions:
REMARK  status: ('A' for Active; 'I' for Inactive)
REMARK    1  A    between atoms: C_9  and  S_12
REMARK                            x       y       z     vdW  Elec       q    Type
REMARK                         _______ _______ _______ _____ _____    ______ ____
ROOT
ATOM      1  C   UNL     1       8.969  -0.361  21.244  0.00  0.00    +0.000 C 
ATOM      2  N   UNL     1       9.391   0.013  22.745  0.00  0.00    +0.000 N 
ATOM      3  C   UNL     1       9.913   1.387  22.618  0.00  0.00    +0.000 C 
ATOM      4  C   UNL     1      10.815   1.624  23.817  0.00  0.00    +0.000 C 
ATOM      5  C   UNL     1      10.598   0.593  24.873  0.00  0.00    +0.000 C 
ATOM      6  C   UNL     1       9.091   0.271  24.922  0.00  0.00    +0.000 A 
ATOM      7  C   UNL     1       8.821  -0.594  26.155  0.00  0.00    +0.000 A 
ATOM      8  C   UNL     1       8.194  -1.918  25.827  0.00  0.00    +0.000 A 
ATOM      9  C   UNL     1       7.890  -2.655  24.577  0.00  0.00    +0.000 A 
ATOM     10  C   UNL     1       8.173  -1.877  23.341  0.00  0.00    +0.000 A 
ATOM     11  C   UNL     1       8.546  -0.370  23.671  0.00  0.00    +0.000 A 
ENDROOT
BRANCH   9  12
ATOM     12  S   UNL     1       9.036  -4.061  24.648  0.00  0.00    +0.000 S 
ATOM     13  O   UNL     1      10.276  -3.546  24.170  0.00  0.00    +0.000 OA
ATOM     14  O   UNL     1       8.434  -5.091  23.824  0.00  0.00    +0.000 OA
ATOM     15  N   UNL     1       9.154  -4.577  26.174  0.00  0.00    +0.000 NA
ENDBRANCH   9  12
TORSDOF 1
ENDMDL
MODEL 4
REMARK VINA RESULT:      -5.6      3.045      4.540
REMARK  Name = 
REMARK  1 active torsions:
REMARK  status: ('A' for Active; 'I' for Inactive)
REMARK    1  A    between atoms: C_9  and  S_12
REMARK                            x       y       z     vdW  Elec       q    Type
REMARK                         _______ _______ _______ _____ _____    ______ ____
ROOT
ATOM      1  C   UNL     1       9.603   2.879  24.257  0.00  0.00    +0.000 C 
ATOM      2  N   UNL     1       8.665   2.356  23.066  0.00  0.00    +0.000 N 
ATOM      3  C   UNL     1       7.931   3.569  22.654  0.00  0.00    +0.000 C 
ATOM      4  C   UNL     1       6.672   3.098  21.947  0.00  0.00    +0.000 C 
ATOM      5  C   UNL     1       6.762   1.655  21.581  0.00  0.00    +0.000 C 
ATOM      6  C   UNL     1       8.210   1.363  21.141  0.00  0.00    +0.000 A 
ATOM      7  C   UNL     1       8.259  -0.040  20.533  0.00  0.00    +0.000 A 
ATOM      8  C   UNL     1       9.221  -0.958  21.230  0.00  0.00    +0.000 A 
ATOM      9  C   UNL     1      10.048  -0.877  22.458  0.00  0.00    +0.000 A 
ATOM     10  C   UNL     1      10.006   0.456  23.119  0.00  0.00    +0.000 A 
ATOM     11  C   UNL     1       9.240   1.526  22.230  0.00  0.00    +0.000 A 
ENDROOT
BRANCH   9  12
ATOM     12  S   UNL     1       9.260  -2.087  23.556  0.00  0.00    +0.000 S 
ATOM     13  O   UNL     1       8.767  -1.322  24.653  0.00  0.00    +0.000 OA
ATOM     14  O   UNL     1      10.300  -3.042  23.886  0.00  0.00    +0.000 OA
ATOM     15  N   UNL     1       8.064  -2.830  22.763  0.00  0.00    +0.000 NA
ENDBRANCH   9  12
TORSDOF 1
ENDMDL
MODEL 5
REMARK VINA RESULT:      -5.6      2.058      2.532
REMARK  Name = 
REMARK  1 active torsions:
REMARK  status: ('A' for Active; 'I' for Inactive)
REMARK    1  A    between atoms: C_9  and  S_12
REMARK                            x       y       z     vdW  Elec       q    Type
REMARK                         _______ _______ _______ _____ _____    ______ ____
ROOT
ATOM      1  C   UNL     1       6.000  -0.062  24.846  0.00  0.00    +0.000 C 
ATOM      2  N   UNL     1       7.205   0.828  24.274  0.00  0.00    +0.000 N 
ATOM      3  C   UNL     1       7.608   1.643  25.437  0.00  0.00    +0.000 C 
ATOM      4  C   UNL     1       8.331   2.860  24.888  0.00  0.00    +0.000 C 
ATOM      5  C   UNL     1       8.714   2.666  23.460  0.00  0.00    +0.000 C 
ATOM      6  C   UNL     1       9.145   1.197  23.277  0.00  0.00    +0.000 A 
ATOM      7  C   UNL     1       9.770   1.045  21.888  0.00  0.00    +0.000 A 
ATOM      8  C   UNL     1       9.077   0.026  21.032  0.00  0.00    +0.000 A 
ATOM      9  C   UNL     1       7.841  -0.784  21.155  0.00  0.00    +0.000 A 
ATOM     10  C   UNL     1       7.164  -0.643  22.473  0.00  0.00    +0.000 A 
ATOM     11  C   UNL     1       8.046   0.190  23.497  0.00  0.00    +0.000 A 
ENDROOT
BRANCH   9  12
ATOM     12  S   UNL     1       6.765  -0.075  19.878  0.00  0.00    +0.000 S 
ATOM     13  O   UNL     1       6.360   1.188  20.399  0.00  0.00    +0.000 OA
ATOM     14  O   UNL     1       5.698  -1.040  19.694  0.00  0.00    +0.000 OA
ATOM     15  N   UNL     1       7.601   0.087  18.505  0.00  0.00    +0.000 NA
ENDBRANCH   9  12
TORSDOF 1
ENDMDL
MODEL 6
REMARK VINA RESULT:      -5.5      3.218      4.523
REMARK  Name = 
REMARK  1 active torsions:
REMARK  status: ('A' for Active; 'I' for Inactive)
REMARK    1  A    between atoms: C_9  and  S_12
REMARK                            x       y       z     vdW  Elec       q    Type
REMARK                         _______ _______ _______ _____ _____    ______ ____
ROOT
ATOM      1  C   UNL     1       6.255   0.652  24.168  0.00  0.00    +0.000 C 
ATOM      2  N   UNL     1       7.400   0.285  23.107  0.00  0.00    +0.000 N 
ATOM      3  C   UNL     1       7.411   1.453  22.203  0.00  0.00    +0.000 C 
ATOM      4  C   UNL     1       8.036   0.989  20.899  0.00  0.00    +0.000 C 
ATOM      5  C   UNL     1       8.742  -0.314  21.067  0.00  0.00    +0.000 C 
ATOM      6  C   UNL     1       9.427  -0.310  22.448  0.00  0.00    +0.000 A 
ATOM      7  C   UNL     1      10.351  -1.527  22.534  0.00  0.00    +0.000 A 
ATOM      8  C   UNL     1      10.027  -2.441  23.679  0.00  0.00    +0.000 A 
ATOM      9  C   UNL     1       8.936  -2.525  24.679  0.00  0.00    +0.000 A 
ATOM     10  C   UNL     1       7.978  -1.387  24.616  0.00  0.00    +0.000 A 
ATOM     11  C   UNL     1       8.478  -0.258  23.618  0.00  0.00    +0.000 A 
ENDROOT
BRANCH   9  12
ATOM     12  S   UNL     1       8.061  -4.040  24.197  0.00  0.00    +0.000 S 
ATOM     13  O   UNL     1       6.978  -4.147  25.118  0.00  0.00    +0.000 OA
ATOM     14  O   UNL     1       9.049  -5.098  24.279  0.00  0.00    +0.000 OA
ATOM     15  N   UNL     1       7.537  -3.893  22.676  0.00  0.00    +0.000 NA
ENDBRANCH   9  12
TORSDOF 1
ENDMDL
MODEL 7
REMARK VINA RESULT:      -5.5      3.428      4.927
REMARK  Name = 
REMARK  1 active torsions:
REMARK  status: ('A' for Active; 'I' for Inactive)
REMARK    1  A    between atoms: C_9  and  S_12
REMARK                            x       y       z     vdW  Elec       q    Type
REMARK                         _______ _______ _______ _____ _____    ______ ____
ROOT
ATOM      1  C   UNL     1       5.955  -2.384  21.260  0.00  0.00    +0.000 C 
ATOM      2  N   UNL     1       7.277  -1.652  21.795  0.00  0.00    +0.000 N 
ATOM      3  C   UNL     1       7.448  -0.528  20.853  0.00  0.00    +0.000 C 
ATOM      4  C   UNL     1       8.908  -0.117  20.924  0.00  0.00    +0.000 C 
ATOM      5  C   UNL     1       9.577  -0.692  22.126  0.00  0.00    +0.000 C 
ATOM      6  C   UNL     1       8.570  -0.661  23.293  0.00  0.00    +0.000 A 
ATOM      7  C   UNL     1       9.312  -1.016  24.584  0.00  0.00    +0.000 A 
ATOM      8  C   UNL     1       8.744  -2.213  25.287  0.00  0.00    +0.000 A 
ATOM      9  C   UNL     1       7.711  -3.228  24.967  0.00  0.00    +0.000 A 
ATOM     10  C   UNL     1       6.983  -2.958  23.697  0.00  0.00    +0.000 A 
ATOM     11  C   UNL     1       7.358  -1.536  23.099  0.00  0.00    +0.000 A 
ENDROOT
BRANCH   9  12
ATOM     12  S   UNL     1       8.685  -4.745  24.759  0.00  0.00    +0.000 S 
ATOM     13  O   UNL     1       8.412  -5.518  25.925  0.00  0.00    +0.000 OA
ATOM     14  O   UNL     1      10.059  -4.304  24.617  0.00  0.00    +0.000 OA
ATOM     15  N   UNL     1       8.209  -5.506  23.416  0.00  0.00    +0.000 NA
ENDBRANCH   9  12
TORSDOF 1
ENDMDL
MODEL 8
REMARK VINA RESULT:      -5.4      2.807      3.739
REMARK  Name = 
REMARK  1 active torsions:
REMARK  status: ('A' for Active; 'I' for Inactive)
REMARK    1  A    between atoms: C_9  and  S_12
REMARK                            x       y       z     vdW  Elec       q    Type
REMARK                         _______ _______ _______ _____ _____    ______ ____
ROOT
ATOM      1  C   UNL     1       8.254  -0.152  20.453  0.00  0.00    +0.000 C 
ATOM      2  N   UNL     1       8.761  -0.518  21.929  0.00  0.00    +0.000 N 
ATOM      3  C   UNL     1       8.594  -1.983  21.993  0.00  0.00    +0.000 C 
ATOM      4  C   UNL     1       8.519  -2.350  23.465  0.00  0.00    +0.000 C 
ATOM      5  C   UNL     1       8.991  -1.231  24.329  0.00  0.00    +0.000 C 
ATOM      6  C   UNL     1      10.183  -0.554  23.624  0.00  0.00    +0.000 A 
ATOM      7  C   UNL     1      10.830   0.430  24.603  0.00  0.00    +0.000 A 
ATOM      8  C   UNL     1      10.864   1.841  24.092  0.00  0.00    +0.000 A 
ATOM      9  C   UNL     1      10.300   2.547  22.916  0.00  0.00    +0.000 A 
ATOM     10  C   UNL     1       9.620   1.644  21.947  0.00  0.00    +0.000 A 
ATOM     11  C   UNL     1       9.841   0.116  22.318  0.00  0.00    +0.000 A 
ENDROOT
BRANCH   9  12
ATOM     12  S   UNL     1       9.054   3.637  23.658  0.00  0.00    +0.000 S 
ATOM     13  O   UNL     1       9.716   4.888  23.828  0.00  0.00    +0.000 OA
ATOM     14  O   UNL     1       8.648   2.980  24.885  0.00  0.00    +0.000 OA
ATOM     15  N   UNL     1       7.791   3.763  22.658  0.00  0.00    +0.000 NA
ENDBRANCH   9  12
TORSDOF 1
ENDMDL
MODEL 9
REMARK VINA RESULT:      -5.3      2.124      2.591
REMARK  Name = 
REMARK  1 active torsions:
REMARK  status: ('A' for Active; 'I' for Inactive)
REMARK    1  A    between atoms: C_9  and  S_12
REMARK                            x       y       z     vdW  Elec       q    Type
REMARK                         _______ _______ _______ _____ _____    ______ ____
ROOT
ATOM      1  C   UNL     1       5.946  -3.110  22.232  0.00  0.00    +0.000 C 
ATOM      2  N   UNL     1       7.388  -2.615  22.727  0.00  0.00    +0.000 N 
ATOM      3  C   UNL     1       7.944  -3.806  23.399  0.00  0.00    +0.000 C 
ATOM      4  C   UNL     1       9.021  -3.309  24.348  0.00  0.00    +0.000 C 
ATOM      5  C   UNL     1       9.412  -1.904  24.039  0.00  0.00    +0.000 C 
ATOM      6  C   UNL     1       9.405  -1.733  22.506  0.00  0.00    +0.000 A 
ATOM      7  C   UNL     1      10.037  -0.380  22.167  0.00  0.00    +0.000 A 
ATOM      8  C   UNL     1       9.127   0.522  21.387  0.00  0.00    +0.000 A 
ATOM      9  C   UNL     1       7.704   0.476  20.974  0.00  0.00    +0.000 A 
ATOM     10  C   UNL     1       7.023  -0.802  21.317  0.00  0.00    +0.000 A 
ATOM     11  C   UNL     1       8.050  -1.882  21.865  0.00  0.00    +0.000 A 
ENDROOT
BRANCH   9  12
ATOM     12  S   UNL     1       6.955   1.807  21.954  0.00  0.00    +0.000 S 
ATOM     13  O   UNL     1       6.556   1.185  23.173  0.00  0.00    +0.000 OA
ATOM     14  O   UNL     1       5.872   2.323  21.140  0.00  0.00    +0.000 OA
ATOM     15  N   UNL     1       8.052   2.966  22.208  0.00  0.00    +0.000 NA
ENDBRANCH   9  12
TORSDOF 1
ENDMDL
