MODEL 1
REMARK VINA RESULT:      -6.7      0.000      0.000
REMARK  Name = 
REMARK  3 active torsions:
REMARK  status: ('A' for Active; 'I' for Inactive)
REMARK    1  A    between atoms: C_5  and  S_8
REMARK    2  A    between atoms: S_8  and  N_11
REMARK    3  A    between atoms: C_17  and  C_19
REMARK                            x       y       z     vdW  Elec       q    Type
REMARK                         _______ _______ _______ _____ _____    ______ ____
ROOT
ATOM      1  S   UNL     1       9.268  -2.320  23.929  0.00  0.00    +0.000 S 
ATOM      2  O   UNL     1      10.100  -3.510  24.230  0.00  0.00    +0.000 OA
ATOM      3  O   UNL     1       9.098  -1.478  25.096  0.00  0.00    +0.000 OA
ENDROOT
BRANCH   1   4
ATOM      4  N   UNL     1       7.843  -2.876  23.437  0.00  0.00    +0.000 NA
ATOM      5  C   UNL     1       6.775  -2.529  24.271  0.00  0.00    +0.000 C 
ATOM      6  C   UNL     1       6.470  -3.612  25.294  0.00  0.00    +0.000 C 
ATOM      7  N   UNL     1       6.283  -4.872  24.605  0.00  0.00    +0.000 N 
ATOM      8  C   UNL     1       7.095  -5.229  23.476  0.00  0.00    +0.000 C 
ATOM      9  C   UNL     1       7.771  -4.085  22.821  0.00  0.00    +0.000 C 
ATOM     10  C   UNL     1       5.457  -5.808  25.150  0.00  0.00    +0.000 C 
ATOM     11  O   UNL     1       5.816  -6.400  26.159  0.00  0.00    +0.000 OA
BRANCH  10  12
ATOM     12  C   UNL     1       4.574  -6.523  24.133  0.00  0.00    +0.000 C 
ATOM     13 CL   UNL     1       3.466  -5.332  23.398  0.00  0.00    +0.000 Cl
ENDBRANCH  10  12
ENDBRANCH   1   4
BRANCH   1  18
ATOM     14  C   UNL     1       7.541   1.918  22.025  0.00  0.00    +0.000 C 
ATOM     15  C   UNL     1       8.778   1.239  21.484  0.00  0.00    +0.000 A 
ATOM     16  C   UNL     1       8.319  -0.233  20.914  0.00  0.00    +0.000 A 
ATOM     17  C   UNL     1       9.215  -1.273  21.519  0.00  0.00    +0.000 A 
ATOM     18  C   UNL     1      10.102  -1.384  22.687  0.00  0.00    +0.000 A 
ATOM     19  C   UNL     1      10.556  -0.023  23.213  0.00  0.00    +0.000 A 
ATOM     20  C   UNL     1       9.956   1.133  22.351  0.00  0.00    +0.000 A 
ENDBRANCH   1  18
TORSDOF 3
ENDMDL
MODEL 2
REMARK VINA RESULT:      -6.5      3.151      6.383
REMARK  Name = 
REMARK  3 active torsions:
REMARK  status: ('A' for Active; 'I' for Inactive)
REMARK    1  A    between atoms: C_5  and  S_8
REMARK    2  A    between atoms: S_8  and  N_11
REMARK    3  A    between atoms: C_17  and  C_19
REMARK                            x       y       z     vdW  Elec       q    Type
REMARK                         _______ _______ _______ _____ _____    ______ ____
ROOT
ATOM      1  S   UNL     1       8.372  -3.657  24.291  0.00  0.00    +0.000 S 
ATOM      2  O   UNL     1       7.549  -3.548  25.519  0.00  0.00    +0.000 OA
ATOM      3  O   UNL     1       9.147  -4.881  24.277  0.00  0.00    +0.000 OA
ENDROOT
BRANCH   1   4
ATOM      4  N   UNL     1       9.351  -2.383  24.287  0.00  0.00    +0.000 NA
ATOM      5  C   UNL     1       8.869  -1.289  25.014  0.00  0.00    +0.000 C 
ATOM      6  C   UNL     1       8.123  -0.299  24.133  0.00  0.00    +0.000 C 
ATOM      7  N   UNL     1       8.969   0.071  23.018  0.00  0.00    +0.000 N 
ATOM      8  C   UNL     1       9.812  -0.894  22.372  0.00  0.00    +0.000 C 
ATOM      9  C   UNL     1      10.086  -2.107  23.179  0.00  0.00    +0.000 C 
ATOM     10  C   UNL     1       8.822   1.305  22.458  0.00  0.00    +0.000 C 
ATOM     11  O   UNL     1       7.824   1.538  21.792  0.00  0.00    +0.000 OA
BRANCH  10  12
ATOM     12  C   UNL     1      10.140   1.983  22.100  0.00  0.00    +0.000 C 
ATOM     13 CL   UNL     1      10.804   2.757  23.566  0.00  0.00    +0.000 Cl
ENDBRANCH  10  12
ENDBRANCH   1   4
BRANCH   1  18
ATOM     14  C   UNL     1       4.385  -6.584  23.972  0.00  0.00    +0.000 C 
ATOM     15  C   UNL     1       4.845  -5.723  22.818  0.00  0.00    +0.000 A 
ATOM     16  C   UNL     1       6.348  -6.235  22.393  0.00  0.00    +0.000 A 
ATOM     17  C   UNL     1       7.259  -5.042  22.356  0.00  0.00    +0.000 A 
ATOM     18  C   UNL     1       7.274  -3.680  22.910  0.00  0.00    +0.000 A 
ATOM     19  C   UNL     1       5.879  -3.183  23.288  0.00  0.00    +0.000 A 
ATOM     20  C   UNL     1       4.799  -4.265  22.970  0.00  0.00    +0.000 A 
ENDBRANCH   1  18
TORSDOF 3
ENDMDL
MODEL 3
REMARK VINA RESULT:      -6.4      1.944      2.201
REMARK  Name = 
REMARK  3 active torsions:
REMARK  status: ('A' for Active; 'I' for Inactive)
REMARK    1  A    between atoms: C_5  and  S_8
REMARK    2  A    between atoms: S_8  and  N_11
REMARK    3  A    between atoms: C_17  and  C_19
REMARK                            x       y       z     vdW  Elec       q    Type
REMARK                         _______ _______ _______ _____ _____    ______ ____
ROOT
ATOM      1  S   UNL     1       9.875  -0.922  22.918  0.00  0.00    +0.000 S 
ATOM      2  O   UNL     1      10.741  -1.979  22.342  0.00  0.00    +0.000 OA
ATOM      3  O   UNL     1      10.470  -0.332  24.101  0.00  0.00    +0.000 OA
ENDROOT
BRANCH   1   4
ATOM      4  N   UNL     1       8.484  -1.631  23.294  0.00  0.00    +0.000 NA
ATOM      5  C   UNL     1       7.941  -1.214  24.514  0.00  0.00    +0.000 C 
ATOM      6  C   UNL     1       8.334  -2.132  25.661  0.00  0.00    +0.000 C 
ATOM      7  N   UNL     1       7.996  -3.496  25.310  0.00  0.00    +0.000 N 
ATOM      8  C   UNL     1       8.173  -3.985  23.972  0.00  0.00    +0.000 C 
ATOM      9  C   UNL     1       8.274  -2.925  22.941  0.00  0.00    +0.000 C 
ATOM     10  C   UNL     1       7.686  -4.376  26.302  0.00  0.00    +0.000 C 
ATOM     11  O   UNL     1       8.575  -4.775  27.041  0.00  0.00    +0.000 OA
BRANCH  10  12
ATOM     12  C   UNL     1       6.516  -5.296  25.970  0.00  0.00    +0.000 C 
ATOM     13 CL   UNL     1       5.036  -4.309  25.818  0.00  0.00    +0.000 Cl
ENDBRANCH  10  12
ENDBRANCH   1   4
BRANCH   1  18
ATOM     14  C   UNL     1       6.111   2.300  22.814  0.00  0.00    +0.000 C 
ATOM     15  C   UNL     1       7.140   2.231  21.709  0.00  0.00    +0.000 A 
ATOM     16  C   UNL     1       7.036   0.735  21.036  0.00  0.00    +0.000 A 
ATOM     17  C   UNL     1       8.411   0.134  21.009  0.00  0.00    +0.000 A 
ATOM     18  C   UNL     1       9.692   0.342  21.700  0.00  0.00    +0.000 A 
ATOM     19  C   UNL     1       9.812   1.738  22.310  0.00  0.00    +0.000 A 
ATOM     20  C   UNL     1       8.530   2.581  22.022  0.00  0.00    +0.000 A 
ENDBRANCH   1  18
TORSDOF 3
ENDMDL
MODEL 4
REMARK VINA RESULT:      -6.3      1.745      2.272
REMARK  Name = 
REMARK  3 active torsions:
REMARK  status: ('A' for Active; 'I' for Inactive)
REMARK    1  A    between atoms: C_5  and  S_8
REMARK    2  A    between atoms: S_8  and  N_11
REMARK    3  A    between atoms: C_17  and  C_19
REMARK                            x       y       z     vdW  Elec       q    Type
REMARK                         _______ _______ _______ _____ _____    ______ ____
ROOT
ATOM      1  S   UNL     1       8.961  -2.107  24.225  0.00  0.00    +0.000 S 
ATOM      2  O   UNL     1      10.159  -2.870  23.801  0.00  0.00    +0.000 OA
ATOM      3  O   UNL     1       9.274  -1.171  25.286  0.00  0.00    +0.000 OA
ENDROOT
BRANCH   1   4
ATOM      4  N   UNL     1       7.893  -3.190  24.741  0.00  0.00    +0.000 NA
ATOM      5  C   UNL     1       8.267  -4.518  24.509  0.00  0.00    +0.000 C 
ATOM      6  C   UNL     1       7.687  -5.058  23.211  0.00  0.00    +0.000 C 
ATOM      7  N   UNL     1       6.254  -4.850  23.211  0.00  0.00    +0.000 N 
ATOM      8  C   UNL     1       5.678  -3.652  23.752  0.00  0.00    +0.000 C 
ATOM      9  C   UNL     1       6.566  -2.907  24.676  0.00  0.00    +0.000 C 
ATOM     10  C   UNL     1       5.460  -5.715  22.521  0.00  0.00    +0.000 C 
ATOM     11  O   UNL     1       5.475  -5.687  21.298  0.00  0.00    +0.000 OA
BRANCH  10  12
ATOM     12  C   UNL     1       4.174  -6.089  23.249  0.00  0.00    +0.000 C 
ATOM     13 CL   UNL     1       4.597  -6.889  24.788  0.00  0.00    +0.000 Cl
ENDBRANCH  10  12
ENDBRANCH   1   4
BRANCH   1  18
ATOM     14  C   UNL     1      10.442   2.494  23.132  0.00  0.00    +0.000 C 
ATOM     15  C   UNL     1       9.342   1.800  22.362  0.00  0.00    +0.000 A 
ATOM     16  C   UNL     1       8.121   1.498  23.420  0.00  0.00    +0.000 A 
ATOM     17  C   UNL     1       7.758   0.045  23.317  0.00  0.00    +0.000 A 
ATOM     18  C   UNL     1       8.388  -1.191  22.830  0.00  0.00    +0.000 A 
ATOM     19  C   UNL     1       9.510  -0.925  21.827  0.00  0.00    +0.000 A 
ATOM     20  C   UNL     1       9.680   0.607  21.579  0.00  0.00    +0.000 A 
ENDBRANCH   1  18
TORSDOF 3
ENDMDL
MODEL 5
REMARK VINA RESULT:      -6.3      1.984      2.382
REMARK  Name = 
REMARK  3 active torsions:
REMARK  status: ('A' for Active; 'I' for Inactive)
REMARK    1  A    between atoms: C_5  and  S_8
REMARK    2  A    between atoms: S_8  and  N_11
REMARK    3  A    between atoms: C_17  and  C_19
REMARK                            x       y       z     vdW  Elec       q    Type
REMARK                         _______ _______ _______ _____ _____    ______ ____
ROOT
ATOM      1  S   UNL     1       7.815  -1.499  22.686  0.00  0.00    +0.000 S 
ATOM      2  O   UNL     1       7.192  -0.997  23.935  0.00  0.00    +0.000 OA
ATOM      3  O   UNL     1       7.229  -0.883  21.513  0.00  0.00    +0.000 OA
ENDROOT
BRANCH   1   4
ATOM      4  N   UNL     1       7.565  -3.086  22.661  0.00  0.00    +0.000 NA
ATOM      5  C   UNL     1       6.473  -3.480  21.880  0.00  0.00    +0.000 C 
ATOM      6  C   UNL     1       5.203  -3.630  22.705  0.00  0.00    +0.000 C 
ATOM      7  N   UNL     1       5.468  -4.512  23.822  0.00  0.00    +0.000 N 
ATOM      8  C   UNL     1       6.719  -4.467  24.525  0.00  0.00    +0.000 C 
ATOM      9  C   UNL     1       7.821  -3.822  23.773  0.00  0.00    +0.000 C 
ATOM     10  C   UNL     1       4.449  -5.260  24.329  0.00  0.00    +0.000 C 
ATOM     11  O   UNL     1       3.563  -4.704  24.964  0.00  0.00    +0.000 OA
BRANCH  10  12
ATOM     12  C   UNL     1       4.848  -6.687  24.688  0.00  0.00    +0.000 C 
ATOM     13 CL   UNL     1       4.728  -6.889  26.458  0.00  0.00    +0.000 Cl
ENDBRANCH  10  12
ENDBRANCH   1   4
BRANCH   1  18
ATOM     14  C   UNL     1       9.538   2.934  24.081  0.00  0.00    +0.000 C 
ATOM     15  C   UNL     1      10.443   1.859  23.524  0.00  0.00    +0.000 A 
ATOM     16  C   UNL     1       9.949   1.552  21.987  0.00  0.00    +0.000 A 
ATOM     17  C   UNL     1       9.746   0.071  21.844  0.00  0.00    +0.000 A 
ATOM     18  C   UNL     1       9.528  -1.077  22.736  0.00  0.00    +0.000 A 
ATOM     19  C   UNL     1      10.005  -0.813  24.164  0.00  0.00    +0.000 A 
ATOM     20  C   UNL     1      10.613   0.620  24.290  0.00  0.00    +0.000 A 
ENDBRANCH   1  18
TORSDOF 3
ENDMDL
MODEL 6
REMARK VINA RESULT:      -6.3      1.699      1.816
REMARK  Name = 
REMARK  3 active torsions:
REMARK  status: ('A' for Active; 'I' for Inactive)
REMARK    1  A    between atoms: C_5  and  S_8
REMARK    2  A    between atoms: S_8  and  N_11
REMARK    3  A    between atoms: C_17  and  C_19
REMARK                            x       y       z     vdW  Elec       q    Type
REMARK                         _______ _______ _______ _____ _____    ______ ____
ROOT
ATOM      1  S   UNL     1       8.815  -2.403  24.024  0.00  0.00    +0.000 S 
ATOM      2  O   UNL     1       9.793  -3.499  24.227  0.00  0.00    +0.000 OA
ATOM      3  O   UNL     1       9.094  -1.273  24.887  0.00  0.00    +0.000 OA
ENDROOT
BRANCH   1   4
ATOM      4  N   UNL     1       7.370  -3.016  24.365  0.00  0.00    +0.000 NA
ATOM      5  C   UNL     1       6.811  -2.536  25.554  0.00  0.00    +0.000 C 
ATOM      6  C   UNL     1       7.106  -3.447  26.735  0.00  0.00    +0.000 C 
ATOM      7  N   UNL     1       6.697  -4.796  26.403  0.00  0.00    +0.000 N 
ATOM      8  C   UNL     1       6.891  -5.329  25.084  0.00  0.00    +0.000 C 
ATOM      9  C   UNL     1       7.093  -4.303  24.033  0.00  0.00    +0.000 C 
ATOM     10  C   UNL     1       6.298  -5.631  27.403  0.00  0.00    +0.000 C 
ATOM     11  O   UNL     1       7.134  -6.065  28.183  0.00  0.00    +0.000 OA
BRANCH  10  12
ATOM     12  C   UNL     1       5.086  -6.485  27.049  0.00  0.00    +0.000 C 
ATOM     13 CL   UNL     1       3.666  -5.862  27.934  0.00  0.00    +0.000 Cl
ENDBRANCH  10  12
ENDBRANCH   1   4
BRANCH   1  18
ATOM     14  C   UNL     1       8.244   2.298  22.562  0.00  0.00    +0.000 C 
ATOM     15  C   UNL     1       8.418   1.166  21.577  0.00  0.00    +0.000 A 
ATOM     16  C   UNL     1       7.145   0.145  21.773  0.00  0.00    +0.000 A 
ATOM     17  C   UNL     1       7.680  -1.245  21.957  0.00  0.00    +0.000 A 
ATOM     18  C   UNL     1       8.953  -1.867  22.348  0.00  0.00    +0.000 A 
ATOM     19  C   UNL     1      10.149  -0.936  22.148  0.00  0.00    +0.000 A 
ATOM     20  C   UNL     1       9.691   0.438  21.564  0.00  0.00    +0.000 A 
ENDBRANCH   1  18
TORSDOF 3
ENDMDL
MODEL 7
REMARK VINA RESULT:      -6.3      1.507      1.945
REMARK  Name = 
REMARK  3 active torsions:
REMARK  status: ('A' for Active; 'I' for Inactive)
REMARK    1  A    between atoms: C_5  and  S_8
REMARK    2  A    between atoms: S_8  and  N_11
REMARK    3  A    between atoms: C_17  and  C_19
REMARK                            x       y       z     vdW  Elec       q    Type
REMARK                         _______ _______ _______ _____ _____    ______ ____
ROOT
ATOM      1  S   UNL     1       9.192  -2.132  23.479  0.00  0.00    +0.000 S 
ATOM      2  O   UNL     1      10.525  -2.400  22.887  0.00  0.00    +0.000 OA
ATOM      3  O   UNL     1       9.299  -1.683  24.852  0.00  0.00    +0.000 OA
ENDROOT
BRANCH   1   4
ATOM      4  N   UNL     1       8.379  -3.516  23.412  0.00  0.00    +0.000 NA
ATOM      5  C   UNL     1       7.057  -3.381  22.973  0.00  0.00    +0.000 C 
ATOM      6  C   UNL     1       6.080  -3.250  24.131  0.00  0.00    +0.000 C 
ATOM      7  N   UNL     1       6.280  -4.355  25.045  0.00  0.00    +0.000 N 
ATOM      8  C   UNL     1       7.596  -4.851  25.335  0.00  0.00    +0.000 C 
ATOM      9  C   UNL     1       8.624  -4.482  24.334  0.00  0.00    +0.000 C 
ATOM     10  C   UNL     1       5.225  -4.804  25.781  0.00  0.00    +0.000 C 
ATOM     11  O   UNL     1       4.802  -4.110  26.695  0.00  0.00    +0.000 OA
BRANCH  10  12
ATOM     12  C   UNL     1       5.150  -6.322  25.894  0.00  0.00    +0.000 C 
ATOM     13 CL   UNL     1       4.549  -6.983  24.348  0.00  0.00    +0.000 Cl
ENDBRANCH  10  12
ENDBRANCH   1   4
BRANCH   1  18
ATOM     14  C   UNL     1      10.647   2.605  23.578  0.00  0.00    +0.000 C 
ATOM     15  C   UNL     1       9.413   2.159  22.828  0.00  0.00    +0.000 A 
ATOM     16  C   UNL     1       8.367   1.537  23.933  0.00  0.00    +0.000 A 
ATOM     17  C   UNL     1       7.938   0.177  23.463  0.00  0.00    +0.000 A 
ATOM     18  C   UNL     1       8.436  -0.847  22.533  0.00  0.00    +0.000 A 
ATOM     19  C   UNL     1       9.392  -0.278  21.485  0.00  0.00    +0.000 A 
ATOM     20  C   UNL     1       9.576   1.260  21.681  0.00  0.00    +0.000 A 
ENDBRANCH   1  18
TORSDOF 3
ENDMDL
MODEL 8
REMARK VINA RESULT:      -6.0      2.850      4.339
REMARK  Name = 
REMARK  3 active torsions:
REMARK  status: ('A' for Active; 'I' for Inactive)
REMARK    1  A    between atoms: C_5  and  S_8
REMARK    2  A    between atoms: S_8  and  N_11
REMARK    3  A    between atoms: C_17  and  C_19
REMARK                            x       y       z     vdW  Elec       q    Type
REMARK                         _______ _______ _______ _____ _____    ______ ____
ROOT
ATOM      1  S   UNL     1       9.818   1.324  23.173  0.00  0.00    +0.000 S 
ATOM      2  O   UNL     1      10.081   1.777  21.786  0.00  0.00    +0.000 OA
ATOM      3  O   UNL     1      10.709   1.961  24.120  0.00  0.00    +0.000 OA
ENDROOT
BRANCH   1   4
ATOM      4  N   UNL     1      10.048  -0.266  23.181  0.00  0.00    +0.000 NA
ATOM      5  C   UNL     1       9.984  -0.860  21.916  0.00  0.00    +0.000 C 
ATOM      6  C   UNL     1       8.596  -1.399  21.605  0.00  0.00    +0.000 C 
ATOM      7  N   UNL     1       8.178  -2.275  22.680  0.00  0.00    +0.000 N 
ATOM      8  C   UNL     1       8.485  -1.970  24.049  0.00  0.00    +0.000 C 
ATOM      9  C   UNL     1       9.594  -1.003  24.228  0.00  0.00    +0.000 C 
ATOM     10  C   UNL     1       7.324  -3.299  22.405  0.00  0.00    +0.000 C 
ATOM     11  O   UNL     1       6.156  -3.044  22.144  0.00  0.00    +0.000 OA
BRANCH  10  12
ATOM     12  C   UNL     1       7.667  -4.601  23.120  0.00  0.00    +0.000 C 
ATOM     13 CL   UNL     1       7.276  -5.969  22.041  0.00  0.00    +0.000 Cl
ENDBRANCH  10  12
ENDBRANCH   1   4
BRANCH   1  18
ATOM     14  C   UNL     1       7.939   5.858  22.484  0.00  0.00    +0.000 C 
ATOM     15  C   UNL     1       7.170   4.769  23.197  0.00  0.00    +0.000 A 
ATOM     16  C   UNL     1       8.025   4.366  24.542  0.00  0.00    +0.000 A 
ATOM     17  C   UNL     1       8.210   2.877  24.554  0.00  0.00    +0.000 A 
ATOM     18  C   UNL     1       8.161   1.777  23.579  0.00  0.00    +0.000 A 
ATOM     19  C   UNL     1       7.349   2.130  22.333  0.00  0.00    +0.000 A 
ATOM     20  C   UNL     1       6.774   3.578  22.438  0.00  0.00    +0.000 A 
ENDBRANCH   1  18
TORSDOF 3
ENDMDL
MODEL 9
REMARK VINA RESULT:      -6.0      2.371      3.192
REMARK  Name = 
REMARK  3 active torsions:
REMARK  status: ('A' for Active; 'I' for Inactive)
REMARK    1  A    between atoms: C_5  and  S_8
REMARK    2  A    between atoms: S_8  and  N_11
REMARK    3  A    between atoms: C_17  and  C_19
REMARK                            x       y       z     vdW  Elec       q    Type
REMARK                         _______ _______ _______ _____ _____    ______ ____
ROOT
ATOM      1  S   UNL     1       9.850   0.221  23.517  0.00  0.00    +0.000 S 
ATOM      2  O   UNL     1      10.796  -0.598  22.722  0.00  0.00    +0.000 OA
ATOM      3  O   UNL     1      10.342   0.451  24.860  0.00  0.00    +0.000 OA
ENDROOT
BRANCH   1   4
ATOM      4  N   UNL     1       8.470  -0.602  23.568  0.00  0.00    +0.000 NA
ATOM      5  C   UNL     1       8.178  -1.152  24.821  0.00  0.00    +0.000 C 
ATOM      6  C   UNL     1       8.654  -2.592  24.939  0.00  0.00    +0.000 C 
ATOM      7  N   UNL     1       8.123  -3.357  23.831  0.00  0.00    +0.000 N 
ATOM      8  C   UNL     1       8.029  -2.791  22.515  0.00  0.00    +0.000 C 
ATOM      9  C   UNL     1       8.072  -1.310  22.479  0.00  0.00    +0.000 C 
ATOM     10  C   UNL     1       7.886  -4.688  23.999  0.00  0.00    +0.000 C 
ATOM     11  O   UNL     1       8.837  -5.453  24.086  0.00  0.00    +0.000 OA
BRANCH  10  12
ATOM     12  C   UNL     1       6.589  -5.171  23.361  0.00  0.00    +0.000 C 
ATOM     13 CL   UNL     1       6.987  -6.253  21.998  0.00  0.00    +0.000 Cl
ENDBRANCH  10  12
ENDBRANCH   1   4
BRANCH   1  18
ATOM     14  C   UNL     1       8.012   4.279  25.688  0.00  0.00    +0.000 C 
ATOM     15  C   UNL     1       8.356   4.241  24.217  0.00  0.00    +0.000 A 
ATOM     16  C   UNL     1       7.395   3.106  23.518  0.00  0.00    +0.000 A 
ATOM     17  C   UNL     1       8.267   2.167  22.736  0.00  0.00    +0.000 A 
ATOM     18  C   UNL     1       9.686   1.782  22.711  0.00  0.00    +0.000 A 
ATOM     19  C   UNL     1      10.594   2.840  23.336  0.00  0.00    +0.000 A 
ATOM     20  C   UNL     1       9.760   4.065  23.830  0.00  0.00    +0.000 A 
ENDBRANCH   1  18
TORSDOF 3
ENDMDL
