MODEL 1
REMARK VINA RESULT:      -6.2      0.000      0.000
REMARK  Name = 
REMARK  3 active torsions:
REMARK  status: ('A' for Active; 'I' for Inactive)
REMARK    1  A    between atoms: C_2  and  C_3
REMARK    2  A    between atoms: C_8  and  N_11
REMARK    3  A    between atoms: C_12  and  C_14
REMARK                            x       y       z     vdW  Elec       q    Type
REMARK                         _______ _______ _______ _____ _____    ______ ____
ROOT
ATOM      1  C   UNL     1       6.590  -4.574  23.555  0.00  0.00    +0.000 C 
ATOM      2  O   UNL     1       6.311  -3.386  23.556  0.00  0.00    +0.000 OA
ATOM      3  N   UNL     1       7.183  -5.122  24.646  0.00  0.00    +0.000 N 
ATOM      4  C   UNL     1       8.539  -5.637  24.522  0.00  0.00    +0.000 C 
ATOM      5  C   UNL     1       9.453  -4.846  25.447  0.00  0.00    +0.000 C 
ATOM      6  C   UNL     1       8.822  -3.517  25.796  0.00  0.00    +0.000 C 
ATOM      7  C   UNL     1       7.551  -3.708  26.589  0.00  0.00    +0.000 C 
ATOM      8  C   UNL     1       6.676  -4.778  25.962  0.00  0.00    +0.000 C 
ENDROOT
BRANCH   6   9
ATOM      9  N   UNL     1       8.564  -2.741  24.606  0.00  0.00    +0.000 NA
ATOM     10  C   UNL     1       9.546  -1.907  24.139  0.00  0.00    +0.000 C 
ATOM     11  O   UNL     1      10.397  -2.411  23.410  0.00  0.00    +0.000 OA
BRANCH  10  12
ATOM     12  C   UNL     1       8.989  -0.638  23.942  0.00  0.00    +0.000 A 
ATOM     13  C   UNL     1      10.055   0.432  24.591  0.00  0.00    +0.000 A 
ATOM     14  C   UNL     1      10.427   1.438  23.544  0.00  0.00    +0.000 A 
ATOM     15  C   UNL     1      10.137   1.715  22.130  0.00  0.00    +0.000 A 
ATOM     16  C   UNL     1       9.126   0.671  21.507  0.00  0.00    +0.000 A 
ATOM     17  C   UNL     1       8.699  -0.284  22.548  0.00  0.00    +0.000 A 
ENDBRANCH  10  12
ENDBRANCH   6   9
BRANCH   1  19
ATOM     18 CL   UNL     1       6.583  -5.797  21.154  0.00  0.00    +0.000 Cl
ATOM     19  C   UNL     1       5.767  -5.548  22.723  0.00  0.00    +0.000 C 
ENDBRANCH   1  19
TORSDOF 3
ENDMDL
MODEL 2
REMARK VINA RESULT:      -6.1      1.818      2.690
REMARK  Name = 
REMARK  3 active torsions:
REMARK  status: ('A' for Active; 'I' for Inactive)
REMARK    1  A    between atoms: C_2  and  C_3
REMARK    2  A    between atoms: C_8  and  N_11
REMARK    3  A    between atoms: C_12  and  C_14
REMARK                            x       y       z     vdW  Elec       q    Type
REMARK                         _______ _______ _______ _____ _____    ______ ____
ROOT
ATOM      1  C   UNL     1       6.619  -3.310  22.406  0.00  0.00    +0.000 C 
ATOM      2  O   UNL     1       6.356  -2.251  21.859  0.00  0.00    +0.000 OA
ATOM      3  N   UNL     1       7.015  -3.312  23.704  0.00  0.00    +0.000 N 
ATOM      4  C   UNL     1       8.366  -3.747  24.023  0.00  0.00    +0.000 C 
ATOM      5  C   UNL     1       9.122  -2.587  24.655  0.00  0.00    +0.000 C 
ATOM      6  C   UNL     1       8.456  -1.275  24.304  0.00  0.00    +0.000 C 
ATOM      7  C   UNL     1       7.068  -1.193  24.894  0.00  0.00    +0.000 C 
ATOM      8  C   UNL     1       6.299  -2.478  24.653  0.00  0.00    +0.000 C 
ENDROOT
BRANCH   6   9
ATOM      9  N   UNL     1       8.409  -1.088  22.873  0.00  0.00    +0.000 NA
ATOM     10  C   UNL     1       9.562  -0.743  22.217  0.00  0.00    +0.000 C 
ATOM     11  O   UNL     1      10.308  -1.664  21.892  0.00  0.00    +0.000 OA
BRANCH  10  12
ATOM     12  C   UNL     1       9.297   0.376  21.420  0.00  0.00    +0.000 A 
ATOM     13  C   UNL     1       8.297  -0.144  20.223  0.00  0.00    +0.000 A 
ATOM     14  C   UNL     1       7.062   0.704  20.224  0.00  0.00    +0.000 A 
ATOM     15  C   UNL     1       6.493   1.821  20.990  0.00  0.00    +0.000 A 
ATOM     16  C   UNL     1       7.450   2.304  22.151  0.00  0.00    +0.000 A 
ATOM     17  C   UNL     1       8.702   1.522  22.116  0.00  0.00    +0.000 A 
ENDBRANCH  10  12
ENDBRANCH   6   9
BRANCH   1  19
ATOM     18 CL   UNL     1       7.188  -5.780  21.493  0.00  0.00    +0.000 Cl
ATOM     19  C   UNL     1       5.936  -4.592  21.949  0.00  0.00    +0.000 C 
ENDBRANCH   1  19
TORSDOF 3
ENDMDL
MODEL 3
REMARK VINA RESULT:      -6.1      2.102      3.437
REMARK  Name = 
REMARK  3 active torsions:
REMARK  status: ('A' for Active; 'I' for Inactive)
REMARK    1  A    between atoms: C_2  and  C_3
REMARK    2  A    between atoms: C_8  and  N_11
REMARK    3  A    between atoms: C_12  and  C_14
REMARK                            x       y       z     vdW  Elec       q    Type
REMARK                         _______ _______ _______ _____ _____    ______ ____
ROOT
ATOM      1  C   UNL     1       7.759  -4.636  24.804  0.00  0.00    +0.000 C 
ATOM      2  O   UNL     1       8.767  -4.181  24.289  0.00  0.00    +0.000 OA
ATOM      3  N   UNL     1       6.726  -5.032  24.017  0.00  0.00    +0.000 N 
ATOM      4  C   UNL     1       5.464  -4.313  24.104  0.00  0.00    +0.000 C 
ATOM      5  C   UNL     1       5.166  -3.675  22.756  0.00  0.00    +0.000 C 
ATOM      6  C   UNL     1       6.435  -3.548  21.944  0.00  0.00    +0.000 C 
ATOM      7  C   UNL     1       7.004  -4.905  21.606  0.00  0.00    +0.000 C 
ATOM      8  C   UNL     1       7.016  -5.809  22.825  0.00  0.00    +0.000 C 
ENDROOT
BRANCH   6   9
ATOM      9  N   UNL     1       7.415  -2.749  22.641  0.00  0.00    +0.000 NA
ATOM     10  C   UNL     1       7.497  -1.411  22.356  0.00  0.00    +0.000 C 
ATOM     11  O   UNL     1       6.724  -0.670  22.961  0.00  0.00    +0.000 OA
BRANCH  10  12
ATOM     12  C   UNL     1       8.832  -1.100  22.078  0.00  0.00    +0.000 A 
ATOM     13  C   UNL     1       8.800   0.263  21.160  0.00  0.00    +0.000 A 
ATOM     14  C   UNL     1       9.650   1.308  21.818  0.00  0.00    +0.000 A 
ATOM     15  C   UNL     1      10.459   1.464  23.035  0.00  0.00    +0.000 A 
ATOM     16  C   UNL     1      10.470   0.156  23.922  0.00  0.00    +0.000 A 
ATOM     17  C   UNL     1       9.693  -0.904  23.249  0.00  0.00    +0.000 A 
ENDBRANCH  10  12
ENDBRANCH   6   9
BRANCH   1  19
ATOM     18 CL   UNL     1       6.864  -4.465  27.341  0.00  0.00    +0.000 Cl
ATOM     19  C   UNL     1       7.847  -5.356  26.144  0.00  0.00    +0.000 C 
ENDBRANCH   1  19
TORSDOF 3
ENDMDL
MODEL 4
REMARK VINA RESULT:      -5.9      2.402      5.340
REMARK  Name = 
REMARK  3 active torsions:
REMARK  status: ('A' for Active; 'I' for Inactive)
REMARK    1  A    between atoms: C_2  and  C_3
REMARK    2  A    between atoms: C_8  and  N_11
REMARK    3  A    between atoms: C_12  and  C_14
REMARK                            x       y       z     vdW  Elec       q    Type
REMARK                         _______ _______ _______ _____ _____    ______ ____
ROOT
ATOM      1  C   UNL     1       7.552  -0.421  21.774  0.00  0.00    +0.000 C 
ATOM      2  O   UNL     1       7.187  -1.580  21.665  0.00  0.00    +0.000 OA
ATOM      3  N   UNL     1       8.754  -0.149  22.345  0.00  0.00    +0.000 N 
ATOM      4  C   UNL     1       8.781   0.578  23.605  0.00  0.00    +0.000 C 
ATOM      5  C   UNL     1       9.406  -0.309  24.672  0.00  0.00    +0.000 C 
ATOM      6  C   UNL     1       9.332  -1.761  24.255  0.00  0.00    +0.000 C 
ATOM      7  C   UNL     1      10.157  -2.016  23.017  0.00  0.00    +0.000 C 
ATOM      8  C   UNL     1       9.903  -0.951  21.966  0.00  0.00    +0.000 C 
ENDROOT
BRANCH   6   9
ATOM      9  N   UNL     1       7.962  -2.166  24.043  0.00  0.00    +0.000 NA
ATOM     10  C   UNL     1       7.230  -2.602  25.116  0.00  0.00    +0.000 C 
ATOM     11  O   UNL     1       6.681  -1.738  25.797  0.00  0.00    +0.000 OA
BRANCH  10  12
ATOM     12  C   UNL     1       6.651  -3.832  24.785  0.00  0.00    +0.000 A 
ATOM     13  C   UNL     1       5.225  -3.479  24.047  0.00  0.00    +0.000 A 
ATOM     14  C   UNL     1       5.200  -4.142  22.703  0.00  0.00    +0.000 A 
ATOM     15  C   UNL     1       6.078  -4.974  21.868  0.00  0.00    +0.000 A 
ATOM     16  C   UNL     1       7.455  -5.294  22.576  0.00  0.00    +0.000 A 
ATOM     17  C   UNL     1       7.464  -4.704  23.929  0.00  0.00    +0.000 A 
ENDBRANCH  10  12
ENDBRANCH   6   9
BRANCH   1  19
ATOM     18 CL   UNL     1       7.665   0.184  19.151  0.00  0.00    +0.000 Cl
ATOM     19  C   UNL     1       7.072   0.625  20.777  0.00  0.00    +0.000 C 
ENDBRANCH   1  19
TORSDOF 3
ENDMDL
MODEL 5
REMARK VINA RESULT:      -5.8      3.708      5.325
REMARK  Name = 
REMARK  3 active torsions:
REMARK  status: ('A' for Active; 'I' for Inactive)
REMARK    1  A    between atoms: C_2  and  C_3
REMARK    2  A    between atoms: C_8  and  N_11
REMARK    3  A    between atoms: C_12  and  C_14
REMARK                            x       y       z     vdW  Elec       q    Type
REMARK                         _______ _______ _______ _____ _____    ______ ____
ROOT
ATOM      1  C   UNL     1       7.806   0.373  25.101  0.00  0.00    +0.000 C 
ATOM      2  O   UNL     1       7.744   1.308  24.320  0.00  0.00    +0.000 OA
ATOM      3  N   UNL     1       8.926  -0.393  25.140  0.00  0.00    +0.000 N 
ATOM      4  C   UNL     1       8.833  -1.789  24.742  0.00  0.00    +0.000 C 
ATOM      5  C   UNL     1       9.718  -2.016  23.525  0.00  0.00    +0.000 C 
ATOM      6  C   UNL     1       9.995  -0.703  22.827  0.00  0.00    +0.000 C 
ATOM      7  C   UNL     1      10.793   0.227  23.711  0.00  0.00    +0.000 C 
ATOM      8  C   UNL     1      10.221   0.264  25.116  0.00  0.00    +0.000 C 
ENDROOT
BRANCH   6   9
ATOM      9  N   UNL     1       8.765  -0.072  22.410  0.00  0.00    +0.000 NA
ATOM     10  C   UNL     1       8.170  -0.493  21.249  0.00  0.00    +0.000 C 
ATOM     11  O   UNL     1       7.431  -1.471  21.332  0.00  0.00    +0.000 OA
BRANCH  10  12
ATOM     12  C   UNL     1       7.908   0.630  20.457  0.00  0.00    +0.000 A 
ATOM     13  C   UNL     1       7.563   0.056  18.955  0.00  0.00    +0.000 A 
ATOM     14  C   UNL     1       6.224   0.581  18.533  0.00  0.00    +0.000 A 
ATOM     15  C   UNL     1       5.147   1.419  19.079  0.00  0.00    +0.000 A 
ATOM     16  C   UNL     1       5.476   1.952  20.530  0.00  0.00    +0.000 A 
ATOM     17  C   UNL     1       6.824   1.499  20.930  0.00  0.00    +0.000 A 
ENDBRANCH  10  12
ENDBRANCH   6   9
BRANCH   1  19
ATOM     18 CL   UNL     1       7.079   2.084  27.053  0.00  0.00    +0.000 Cl
ATOM     19  C   UNL     1       7.024   0.419  26.407  0.00  0.00    +0.000 C 
ENDBRANCH   1  19
TORSDOF 3
ENDMDL
MODEL 6
REMARK VINA RESULT:      -5.8      2.920      5.984
REMARK  Name = 
REMARK  3 active torsions:
REMARK  status: ('A' for Active; 'I' for Inactive)
REMARK    1  A    between atoms: C_2  and  C_3
REMARK    2  A    between atoms: C_8  and  N_11
REMARK    3  A    between atoms: C_12  and  C_14
REMARK                            x       y       z     vdW  Elec       q    Type
REMARK                         _______ _______ _______ _____ _____    ______ ____
ROOT
ATOM      1  C   UNL     1       7.274   0.624  23.025  0.00  0.00    +0.000 C 
ATOM      2  O   UNL     1       6.728  -0.238  22.357  0.00  0.00    +0.000 OA
ATOM      3  N   UNL     1       8.630   0.679  23.067  0.00  0.00    +0.000 N 
ATOM      4  C   UNL     1       9.302   0.421  24.332  0.00  0.00    +0.000 C 
ATOM      5  C   UNL     1      10.181  -0.812  24.181  0.00  0.00    +0.000 C 
ATOM      6  C   UNL     1       9.719  -1.644  23.005  0.00  0.00    +0.000 C 
ATOM      7  C   UNL     1       9.888  -0.893  21.706  0.00  0.00    +0.000 C 
ATOM      8  C   UNL     1       9.373   0.529  21.829  0.00  0.00    +0.000 C 
ENDROOT
BRANCH   6   9
ATOM      9  N   UNL     1       8.346  -2.057  23.175  0.00  0.00    +0.000 NA
ATOM     10  C   UNL     1       8.073  -3.393  23.313  0.00  0.00    +0.000 C 
ATOM     11  O   UNL     1       8.167  -3.861  24.446  0.00  0.00    +0.000 OA
BRANCH  10  12
ATOM     12  C   UNL     1       7.071  -3.735  22.399  0.00  0.00    +0.000 A 
ATOM     13  C   UNL     1       7.308  -5.321  22.037  0.00  0.00    +0.000 A 
ATOM     14  C   UNL     1       6.040  -6.073  22.312  0.00  0.00    +0.000 A 
ATOM     15  C   UNL     1       4.691  -5.806  22.828  0.00  0.00    +0.000 A 
ATOM     16  C   UNL     1       4.476  -4.283  23.192  0.00  0.00    +0.000 A 
ATOM     17  C   UNL     1       5.694  -3.519  22.860  0.00  0.00    +0.000 A 
ENDBRANCH  10  12
ENDBRANCH   6   9
BRANCH   1  19
ATOM     18 CL   UNL     1       6.708   2.948  21.783  0.00  0.00    +0.000 Cl
ATOM     19  C   UNL     1       6.578   1.957  23.264  0.00  0.00    +0.000 C 
ENDBRANCH   1  19
TORSDOF 3
ENDMDL
MODEL 7
REMARK VINA RESULT:      -5.8      2.375      5.577
REMARK  Name = 
REMARK  3 active torsions:
REMARK  status: ('A' for Active; 'I' for Inactive)
REMARK    1  A    between atoms: C_2  and  C_3
REMARK    2  A    between atoms: C_8  and  N_11
REMARK    3  A    between atoms: C_12  and  C_14
REMARK                            x       y       z     vdW  Elec       q    Type
REMARK                         _______ _______ _______ _____ _____    ______ ____
ROOT
ATOM      1  C   UNL     1       7.442  -0.961  21.593  0.00  0.00    +0.000 C 
ATOM      2  O   UNL     1       7.649  -2.119  21.915  0.00  0.00    +0.000 OA
ATOM      3  N   UNL     1       8.349  -0.004  21.918  0.00  0.00    +0.000 N 
ATOM      4  C   UNL     1       7.959   1.040  22.854  0.00  0.00    +0.000 C 
ATOM      5  C   UNL     1       8.843   0.951  24.089  0.00  0.00    +0.000 C 
ATOM      6  C   UNL     1       9.463  -0.425  24.191  0.00  0.00    +0.000 C 
ATOM      7  C   UNL     1      10.396  -0.691  23.034  0.00  0.00    +0.000 C 
ATOM      8  C   UNL     1       9.759  -0.283  21.718  0.00  0.00    +0.000 C 
ENDROOT
BRANCH   6   9
ATOM      9  N   UNL     1       8.443  -1.444  24.263  0.00  0.00    +0.000 NA
ATOM     10  C   UNL     1       8.273  -2.125  25.440  0.00  0.00    +0.000 C 
ATOM     11  O   UNL     1       7.552  -1.597  26.283  0.00  0.00    +0.000 OA
BRANCH  10  12
ATOM     12  C   UNL     1       8.289  -3.496  25.163  0.00  0.00    +0.000 A 
ATOM     13  C   UNL     1       8.740  -4.237  26.559  0.00  0.00    +0.000 A 
ATOM     14  C   UNL     1       7.700  -5.253  26.924  0.00  0.00    +0.000 A 
ATOM     15  C   UNL     1       6.411  -5.742  26.416  0.00  0.00    +0.000 A 
ATOM     16  C   UNL     1       5.974  -5.012  25.083  0.00  0.00    +0.000 A 
ATOM     17  C   UNL     1       7.024  -4.058  24.675  0.00  0.00    +0.000 A 
ENDBRANCH  10  12
ENDBRANCH   6   9
BRANCH   1  19
ATOM     18 CL   UNL     1       7.650   0.155  19.149  0.00  0.00    +0.000 Cl
ATOM     19  C   UNL     1       6.610  -0.652  20.356  0.00  0.00    +0.000 C 
ENDBRANCH   1  19
TORSDOF 3
ENDMDL
MODEL 8
REMARK VINA RESULT:      -5.7      2.139      2.929
REMARK  Name = 
REMARK  3 active torsions:
REMARK  status: ('A' for Active; 'I' for Inactive)
REMARK    1  A    between atoms: C_2  and  C_3
REMARK    2  A    between atoms: C_8  and  N_11
REMARK    3  A    between atoms: C_12  and  C_14
REMARK                            x       y       z     vdW  Elec       q    Type
REMARK                         _______ _______ _______ _____ _____    ______ ____
ROOT
ATOM      1  C   UNL     1       6.943  -2.634  26.359  0.00  0.00    +0.000 C 
ATOM      2  O   UNL     1       7.932  -1.925  26.451  0.00  0.00    +0.000 OA
ATOM      3  N   UNL     1       7.089  -3.951  26.066  0.00  0.00    +0.000 N 
ATOM      4  C   UNL     1       6.562  -4.450  24.804  0.00  0.00    +0.000 C 
ATOM      5  C   UNL     1       7.714  -4.984  23.965  0.00  0.00    +0.000 C 
ATOM      6  C   UNL     1       9.024  -4.397  24.441  0.00  0.00    +0.000 C 
ATOM      7  C   UNL     1       9.342  -4.839  25.849  0.00  0.00    +0.000 C 
ATOM      8  C   UNL     1       8.125  -4.707  26.747  0.00  0.00    +0.000 C 
ENDROOT
BRANCH   6   9
ATOM      9  N   UNL     1       9.003  -2.955  24.356  0.00  0.00    +0.000 NA
ATOM     10  C   UNL     1       9.082  -2.367  23.121  0.00  0.00    +0.000 C 
ATOM     11  O   UNL     1       8.027  -2.241  22.502  0.00  0.00    +0.000 OA
BRANCH  10  12
ATOM     12  C   UNL     1      10.097  -1.406  23.154  0.00  0.00    +0.000 A 
ATOM     13  C   UNL     1       9.935  -0.525  21.775  0.00  0.00    +0.000 A 
ATOM     14  C   UNL     1       9.807   0.924  22.141  0.00  0.00    +0.000 A 
ATOM     15  C   UNL     1       9.759   1.754  23.351  0.00  0.00    +0.000 A 
ATOM     16  C   UNL     1       9.897   0.900  24.674  0.00  0.00    +0.000 A 
ATOM     17  C   UNL     1      10.093  -0.521  24.325  0.00  0.00    +0.000 A 
ENDBRANCH  10  12
ENDBRANCH   6   9
BRANCH   1  19
ATOM     18 CL   UNL     1       4.382  -1.871  26.014  0.00  0.00    +0.000 Cl
ATOM     19  C   UNL     1       5.689  -2.297  27.154  0.00  0.00    +0.000 C 
ENDBRANCH   1  19
TORSDOF 3
ENDMDL
MODEL 9
REMARK VINA RESULT:      -5.7      2.987      4.040
REMARK  Name = 
REMARK  3 active torsions:
REMARK  status: ('A' for Active; 'I' for Inactive)
REMARK    1  A    between atoms: C_2  and  C_3
REMARK    2  A    between atoms: C_8  and  N_11
REMARK    3  A    between atoms: C_12  and  C_14
REMARK                            x       y       z     vdW  Elec       q    Type
REMARK                         _______ _______ _______ _____ _____    ______ ____
ROOT
ATOM      1  C   UNL     1       7.138  -0.932  25.135  0.00  0.00    +0.000 C 
ATOM      2  O   UNL     1       7.748   0.031  24.699  0.00  0.00    +0.000 OA
ATOM      3  N   UNL     1       7.609  -2.184  24.900  0.00  0.00    +0.000 N 
ATOM      4  C   UNL     1       6.820  -3.085  24.074  0.00  0.00    +0.000 C 
ATOM      5  C   UNL     1       7.622  -3.444  22.831  0.00  0.00    +0.000 C 
ATOM      6  C   UNL     1       8.704  -2.415  22.591  0.00  0.00    +0.000 C 
ATOM      7  C   UNL     1       9.716  -2.416  23.711  0.00  0.00    +0.000 C 
ATOM      8  C   UNL     1       9.029  -2.437  25.064  0.00  0.00    +0.000 C 
ENDROOT
BRANCH   6   9
ATOM      9  N   UNL     1       8.134  -1.099  22.425  0.00  0.00    +0.000 NA
ATOM     10  C   UNL     1       7.749  -0.701  21.172  0.00  0.00    +0.000 C 
ATOM     11  O   UNL     1       6.625  -1.038  20.808  0.00  0.00    +0.000 OA
BRANCH  10  12
ATOM     12  C   UNL     1       8.322   0.548  20.910  0.00  0.00    +0.000 A 
ATOM     13  C   UNL     1       7.172   1.663  21.281  0.00  0.00    +0.000 A 
ATOM     14  C   UNL     1       7.741   2.631  22.274  0.00  0.00    +0.000 A 
ATOM     15  C   UNL     1       8.994   2.844  23.012  0.00  0.00    +0.000 A 
ATOM     16  C   UNL     1      10.089   1.758  22.665  0.00  0.00    +0.000 A 
ATOM     17  C   UNL     1       9.564   0.839  21.635  0.00  0.00    +0.000 A 
ENDBRANCH  10  12
ENDBRANCH   6   9
BRANCH   1  19
ATOM     18 CL   UNL     1       7.148   0.297  27.533  0.00  0.00    +0.000 Cl
ATOM     19  C   UNL     1       6.303  -0.796  26.401  0.00  0.00    +0.000 C 
ENDBRANCH   1  19
TORSDOF 3
ENDMDL
