MODEL 1
REMARK VINA RESULT:      -6.3      0.000      0.000
REMARK  Name = 
REMARK  3 active torsions:
REMARK  status: ('A' for Active; 'I' for Inactive)
REMARK    1  A    between atoms: C_8  and  C_10
REMARK    2  A    between atoms: C_10  and  O_11
REMARK    3  A    between atoms: O_11  and  C_12
REMARK                            x       y       z     vdW  Elec       q    Type
REMARK                         _______ _______ _______ _____ _____    ______ ____
ROOT
ATOM      1  C   UNL     1       4.226  -5.018  23.108  0.00  0.00    +0.000 C 
ATOM      2  N   UNL     1       5.352  -5.810  23.376  0.00  0.00    +0.000 NA
ATOM      3  C   UNL     1       6.105  -5.400  24.459  0.00  0.00    +0.000 C 
ATOM      4  C   UNL     1       7.135  -4.345  24.149  0.00  0.00    +0.000 C 
ATOM      5  N   UNL     1       7.169  -4.102  22.707  0.00  0.00    +0.000 N 
ATOM      6  C   UNL     1       7.202  -5.298  21.858  0.00  0.00    +0.000 C 
ATOM      7  C   UNL     1       6.057  -6.209  22.246  0.00  0.00    +0.000 C 
ATOM      8  C   UNL     1       6.421  -3.039  22.255  0.00  0.00    +0.000 C 
ATOM      9  O   UNL     1       5.362  -3.307  21.686  0.00  0.00    +0.000 OA
ENDROOT
BRANCH   8  10
ATOM     10  C   UNL     1       7.193  -1.811  21.905  0.00  0.00    +0.000 C 
BRANCH  10  11
ATOM     11  O   UNL     1       8.512  -1.867  22.041  0.00  0.00    +0.000 OA
BRANCH  11  12
ATOM     12  C   UNL     1       9.516  -1.083  21.943  0.00  0.00    +0.000 A 
ATOM     13  C   UNL     1       9.152   0.323  21.159  0.00  0.00    +0.000 A 
ATOM     14  C   UNL     1       9.599   1.467  22.009  0.00  0.00    +0.000 A 
ATOM     15  C   UNL     1      10.243   1.693  23.319  0.00  0.00    +0.000 A 
ATOM     16  C   UNL     1       9.487   2.687  24.207  0.00  0.00    +0.000 C 
ATOM     17  C   UNL     1      10.579   0.335  24.032  0.00  0.00    +0.000 A 
ATOM     18  C   UNL     1      10.367  -0.813  23.123  0.00  0.00    +0.000 A 
ENDBRANCH  11  12
ENDBRANCH  10  11
ENDBRANCH   8  10
TORSDOF 3
ENDMDL
MODEL 2
REMARK VINA RESULT:      -6.2      1.648      2.621
REMARK  Name = 
REMARK  3 active torsions:
REMARK  status: ('A' for Active; 'I' for Inactive)
REMARK    1  A    between atoms: C_8  and  C_10
REMARK    2  A    between atoms: C_10  and  O_11
REMARK    3  A    between atoms: O_11  and  C_12
REMARK                            x       y       z     vdW  Elec       q    Type
REMARK                         _______ _______ _______ _____ _____    ______ ____
ROOT
ATOM      1  C   UNL     1       5.870  -2.796  21.252  0.00  0.00    +0.000 C 
ATOM      2  N   UNL     1       5.458  -3.964  21.909  0.00  0.00    +0.000 NA
ATOM      3  C   UNL     1       4.955  -3.766  23.180  0.00  0.00    +0.000 C 
ATOM      4  C   UNL     1       5.992  -3.724  24.272  0.00  0.00    +0.000 C 
ATOM      5  N   UNL     1       7.306  -4.040  23.711  0.00  0.00    +0.000 N 
ATOM      6  C   UNL     1       7.357  -5.208  22.823  0.00  0.00    +0.000 C 
ATOM      7  C   UNL     1       6.309  -5.050  21.742  0.00  0.00    +0.000 C 
ATOM      8  C   UNL     1       8.094  -2.965  23.370  0.00  0.00    +0.000 C 
ATOM      9  O   UNL     1       8.192  -2.707  22.170  0.00  0.00    +0.000 OA
ENDROOT
BRANCH   8  10
ATOM     10  C   UNL     1       9.204  -2.655  24.317  0.00  0.00    +0.000 C 
BRANCH  10  11
ATOM     11  O   UNL     1       9.317  -1.397  24.725  0.00  0.00    +0.000 OA
BRANCH  11  12
ATOM     12  C   UNL     1       9.338  -0.226  24.215  0.00  0.00    +0.000 A 
ATOM     13  C   UNL     1      10.431  -0.085  22.987  0.00  0.00    +0.000 A 
ATOM     14  C   UNL     1       9.734   0.487  21.796  0.00  0.00    +0.000 A 
ATOM     15  C   UNL     1       8.381   0.938  21.412  0.00  0.00    +0.000 A 
ATOM     16  C   UNL     1       7.883   0.320  20.101  0.00  0.00    +0.000 C 
ATOM     17  C   UNL     1       7.371   0.795  22.604  0.00  0.00    +0.000 A 
ATOM     18  C   UNL     1       8.073   0.456  23.862  0.00  0.00    +0.000 A 
ENDBRANCH  11  12
ENDBRANCH  10  11
ENDBRANCH   8  10
TORSDOF 3
ENDMDL
MODEL 3
REMARK VINA RESULT:      -6.1      1.352      2.190
REMARK  Name = 
REMARK  3 active torsions:
REMARK  status: ('A' for Active; 'I' for Inactive)
REMARK    1  A    between atoms: C_8  and  C_10
REMARK    2  A    between atoms: C_10  and  O_11
REMARK    3  A    between atoms: O_11  and  C_12
REMARK                            x       y       z     vdW  Elec       q    Type
REMARK                         _______ _______ _______ _____ _____    ______ ____
ROOT
ATOM      1  C   UNL     1       5.367  -5.781  24.564  0.00  0.00    +0.000 C 
ATOM      2  N   UNL     1       5.225  -5.468  23.205  0.00  0.00    +0.000 NA
ATOM      3  C   UNL     1       6.117  -6.110  22.367  0.00  0.00    +0.000 C 
ATOM      4  C   UNL     1       7.447  -5.419  22.210  0.00  0.00    +0.000 C 
ATOM      5  N   UNL     1       7.416  -4.133  22.907  0.00  0.00    +0.000 N 
ATOM      6  C   UNL     1       6.231  -3.303  22.665  0.00  0.00    +0.000 C 
ATOM      7  C   UNL     1       4.989  -4.123  22.946  0.00  0.00    +0.000 C 
ATOM      8  C   UNL     1       7.930  -4.125  24.183  0.00  0.00    +0.000 C 
ATOM      9  O   UNL     1       7.119  -4.086  25.109  0.00  0.00    +0.000 OA
ENDROOT
BRANCH   8  10
ATOM     10  C   UNL     1       9.289  -3.525  24.326  0.00  0.00    +0.000 C 
BRANCH  10  11
ATOM     11  O   UNL     1       9.408  -2.228  24.066  0.00  0.00    +0.000 OA
BRANCH  11  12
ATOM     12  C   UNL     1      10.118  -1.463  23.330  0.00  0.00    +0.000 A 
ATOM     13  C   UNL     1       9.568  -1.384  21.775  0.00  0.00    +0.000 A 
ATOM     14  C   UNL     1       9.409   0.053  21.402  0.00  0.00    +0.000 A 
ATOM     15  C   UNL     1       9.587   1.385  22.014  0.00  0.00    +0.000 A 
ATOM     16  C   UNL     1       8.361   2.292  21.864  0.00  0.00    +0.000 C 
ATOM     17  C   UNL     1      10.115   1.272  23.488  0.00  0.00    +0.000 A 
ATOM     18  C   UNL     1      10.506  -0.118  23.810  0.00  0.00    +0.000 A 
ENDBRANCH  11  12
ENDBRANCH  10  11
ENDBRANCH   8  10
TORSDOF 3
ENDMDL
MODEL 4
REMARK VINA RESULT:      -6.1      2.111      2.805
REMARK  Name = 
REMARK  3 active torsions:
REMARK  status: ('A' for Active; 'I' for Inactive)
REMARK    1  A    between atoms: C_8  and  C_10
REMARK    2  A    between atoms: C_10  and  O_11
REMARK    3  A    between atoms: O_11  and  C_12
REMARK                            x       y       z     vdW  Elec       q    Type
REMARK                         _______ _______ _______ _____ _____    ______ ____
ROOT
ATOM      1  C   UNL     1       6.879  -3.285  26.559  0.00  0.00    +0.000 C 
ATOM      2  N   UNL     1       7.109  -4.581  26.074  0.00  0.00    +0.000 NA
ATOM      3  C   UNL     1       8.351  -5.102  26.379  0.00  0.00    +0.000 C 
ATOM      4  C   UNL     1       9.447  -4.732  25.413  0.00  0.00    +0.000 C 
ATOM      5  N   UNL     1       8.876  -3.994  24.286  0.00  0.00    +0.000 N 
ATOM      6  C   UNL     1       7.665  -4.571  23.691  0.00  0.00    +0.000 C 
ATOM      7  C   UNL     1       6.643  -4.804  24.783  0.00  0.00    +0.000 C 
ATOM      8  C   UNL     1       8.935  -2.622  24.370  0.00  0.00    +0.000 C 
ATOM      9  O   UNL     1       7.886  -2.037  24.644  0.00  0.00    +0.000 OA
ENDROOT
BRANCH   8  10
ATOM     10  C   UNL     1       9.982  -1.969  23.532  0.00  0.00    +0.000 C 
BRANCH  10  11
ATOM     11  O   UNL     1       9.632  -1.597  22.307  0.00  0.00    +0.000 OA
BRANCH  11  12
ATOM     12  C   UNL     1       9.660  -0.545  21.584  0.00  0.00    +0.000 A 
ATOM     13  C   UNL     1       8.299  -0.366  20.666  0.00  0.00    +0.000 A 
ATOM     14  C   UNL     1       7.752   1.005  20.895  0.00  0.00    +0.000 A 
ATOM     15  C   UNL     1       8.064   2.206  21.695  0.00  0.00    +0.000 A 
ATOM     16  C   UNL     1       6.870   2.728  22.501  0.00  0.00    +0.000 C 
ATOM     17  C   UNL     1       9.364   2.002  22.549  0.00  0.00    +0.000 A 
ATOM     18  C   UNL     1      10.061   0.753  22.172  0.00  0.00    +0.000 A 
ENDBRANCH  11  12
ENDBRANCH  10  11
ENDBRANCH   8  10
TORSDOF 3
ENDMDL
MODEL 5
REMARK VINA RESULT:      -5.8      2.193      6.563
REMARK  Name = 
REMARK  3 active torsions:
REMARK  status: ('A' for Active; 'I' for Inactive)
REMARK    1  A    between atoms: C_8  and  C_10
REMARK    2  A    between atoms: C_10  and  O_11
REMARK    3  A    between atoms: O_11  and  C_12
REMARK                            x       y       z     vdW  Elec       q    Type
REMARK                         _______ _______ _______ _____ _____    ______ ____
ROOT
ATOM      1  C   UNL     1      10.067   1.342  22.187  0.00  0.00    +0.000 C 
ATOM      2  N   UNL     1       8.705   1.299  21.856  0.00  0.00    +0.000 NA
ATOM      3  C   UNL     1       7.845   1.322  22.937  0.00  0.00    +0.000 C 
ATOM      4  C   UNL     1       7.562  -0.024  23.550  0.00  0.00    +0.000 C 
ATOM      5  N   UNL     1       8.189  -1.071  22.743  0.00  0.00    +0.000 N 
ATOM      6  C   UNL     1       7.982  -0.970  21.294  0.00  0.00    +0.000 C 
ATOM      7  C   UNL     1       8.389   0.413  20.833  0.00  0.00    +0.000 C 
ATOM      8  C   UNL     1       9.425  -1.502  23.165  0.00  0.00    +0.000 C 
ATOM      9  O   UNL     1      10.400  -1.111  22.522  0.00  0.00    +0.000 OA
ENDROOT
BRANCH   8  10
ATOM     10  C   UNL     1       9.443  -2.821  23.862  0.00  0.00    +0.000 C 
BRANCH  10  11
ATOM     11  O   UNL     1       8.305  -3.503  23.898  0.00  0.00    +0.000 OA
BRANCH  11  12
ATOM     12  C   UNL     1       7.921  -4.720  23.935  0.00  0.00    +0.000 A 
ATOM     13  C   UNL     1       6.894  -5.027  25.189  0.00  0.00    +0.000 A 
ATOM     14  C   UNL     1       5.673  -5.695  24.648  0.00  0.00    +0.000 A 
ATOM     15  C   UNL     1       5.132  -6.135  23.346  0.00  0.00    +0.000 A 
ATOM     16  C   UNL     1       3.707  -5.640  23.080  0.00  0.00    +0.000 C 
ATOM     17  C   UNL     1       6.137  -5.833  22.179  0.00  0.00    +0.000 A 
ATOM     18  C   UNL     1       7.447  -5.390  22.703  0.00  0.00    +0.000 A 
ENDBRANCH  11  12
ENDBRANCH  10  11
ENDBRANCH   8  10
TORSDOF 3
ENDMDL
MODEL 6
REMARK VINA RESULT:      -5.8      2.060      3.261
REMARK  Name = 
REMARK  3 active torsions:
REMARK  status: ('A' for Active; 'I' for Inactive)
REMARK    1  A    between atoms: C_8  and  C_10
REMARK    2  A    between atoms: C_10  and  O_11
REMARK    3  A    between atoms: O_11  and  C_12
REMARK                            x       y       z     vdW  Elec       q    Type
REMARK                         _______ _______ _______ _____ _____    ______ ____
ROOT
ATOM      1  C   UNL     1       5.334  -4.729  22.442  0.00  0.00    +0.000 C 
ATOM      2  N   UNL     1       6.269  -5.187  23.383  0.00  0.00    +0.000 NA
ATOM      3  C   UNL     1       5.916  -4.971  24.701  0.00  0.00    +0.000 C 
ATOM      4  C   UNL     1       6.292  -3.617  25.243  0.00  0.00    +0.000 C 
ATOM      5  N   UNL     1       7.075  -2.890  24.244  0.00  0.00    +0.000 N 
ATOM      6  C   UNL     1       8.158  -3.648  23.606  0.00  0.00    +0.000 C 
ATOM      7  C   UNL     1       7.594  -4.937  23.047  0.00  0.00    +0.000 C 
ATOM      8  C   UNL     1       6.375  -2.015  23.446  0.00  0.00    +0.000 C 
ATOM      9  O   UNL     1       6.152  -2.374  22.289  0.00  0.00    +0.000 OA
ENDROOT
BRANCH   8  10
ATOM     10  C   UNL     1       6.528  -0.570  23.786  0.00  0.00    +0.000 C 
BRANCH  10  11
ATOM     11  O   UNL     1       7.589   0.058  23.296  0.00  0.00    +0.000 OA
BRANCH  11  12
ATOM     12  C   UNL     1       7.919   0.693  22.239  0.00  0.00    +0.000 A 
ATOM     13  C   UNL     1       8.789  -0.233  21.184  0.00  0.00    +0.000 A 
ATOM     14  C   UNL     1       8.143  -0.150  19.840  0.00  0.00    +0.000 A 
ATOM     15  C   UNL     1       6.976   0.494  19.206  0.00  0.00    +0.000 A 
ATOM     16  C   UNL     1       6.100  -0.479  18.410  0.00  0.00    +0.000 C 
ATOM     17  C   UNL     1       6.177   1.370  20.235  0.00  0.00    +0.000 A 
ATOM     18  C   UNL     1       6.915   1.500  21.511  0.00  0.00    +0.000 A 
ENDBRANCH  11  12
ENDBRANCH  10  11
ENDBRANCH   8  10
TORSDOF 3
ENDMDL
MODEL 7
REMARK VINA RESULT:      -5.7      1.379      1.829
REMARK  Name = 
REMARK  3 active torsions:
REMARK  status: ('A' for Active; 'I' for Inactive)
REMARK    1  A    between atoms: C_8  and  C_10
REMARK    2  A    between atoms: C_10  and  O_11
REMARK    3  A    between atoms: O_11  and  C_12
REMARK                            x       y       z     vdW  Elec       q    Type
REMARK                         _______ _______ _______ _____ _____    ______ ____
ROOT
ATOM      1  C   UNL     1       4.549  -5.349  22.911  0.00  0.00    +0.000 C 
ATOM      2  N   UNL     1       5.530  -5.141  23.890  0.00  0.00    +0.000 NA
ATOM      3  C   UNL     1       5.328  -4.029  24.685  0.00  0.00    +0.000 C 
ATOM      4  C   UNL     1       5.864  -2.740  24.119  0.00  0.00    +0.000 C 
ATOM      5  N   UNL     1       6.602  -3.016  22.886  0.00  0.00    +0.000 N 
ATOM      6  C   UNL     1       7.551  -4.134  22.947  0.00  0.00    +0.000 C 
ATOM      7  C   UNL     1       6.832  -5.364  23.457  0.00  0.00    +0.000 C 
ATOM      8  C   UNL     1       5.900  -2.860  21.714  0.00  0.00    +0.000 C 
ATOM      9  O   UNL     1       5.536  -3.888  21.142  0.00  0.00    +0.000 OA
ENDROOT
BRANCH   8  10
ATOM     10  C   UNL     1       6.202  -1.618  20.944  0.00  0.00    +0.000 C 
BRANCH  10  11
ATOM     11  O   UNL     1       7.245  -0.899  21.341  0.00  0.00    +0.000 OA
BRANCH  11  12
ATOM     12  C   UNL     1       7.494   0.298  21.710  0.00  0.00    +0.000 A 
ATOM     13  C   UNL     1       7.208   0.542  23.317  0.00  0.00    +0.000 A 
ATOM     14  C   UNL     1       8.426   1.154  23.927  0.00  0.00    +0.000 A 
ATOM     15  C   UNL     1       9.780   1.579  23.517  0.00  0.00    +0.000 A 
ATOM     16  C   UNL     1      10.892   1.017  24.409  0.00  0.00    +0.000 C 
ATOM     17  C   UNL     1      10.014   1.338  21.984  0.00  0.00    +0.000 A 
ATOM     18  C   UNL     1       8.757   0.955  21.304  0.00  0.00    +0.000 A 
ENDBRANCH  11  12
ENDBRANCH  10  11
ENDBRANCH   8  10
TORSDOF 3
ENDMDL
MODEL 8
REMARK VINA RESULT:      -5.7      2.552      6.925
REMARK  Name = 
REMARK  3 active torsions:
REMARK  status: ('A' for Active; 'I' for Inactive)
REMARK    1  A    between atoms: C_8  and  C_10
REMARK    2  A    between atoms: C_10  and  O_11
REMARK    3  A    between atoms: O_11  and  C_12
REMARK                            x       y       z     vdW  Elec       q    Type
REMARK                         _______ _______ _______ _____ _____    ______ ____
ROOT
ATOM      1  C   UNL     1       7.881   1.575  23.580  0.00  0.00    +0.000 C 
ATOM      2  N   UNL     1       9.188   1.870  23.167  0.00  0.00    +0.000 NA
ATOM      3  C   UNL     1       9.542   1.339  21.941  0.00  0.00    +0.000 C 
ATOM      4  C   UNL     1      10.060  -0.074  21.990  0.00  0.00    +0.000 C 
ATOM      5  N   UNL     1      10.183  -0.503  23.383  0.00  0.00    +0.000 N 
ATOM      6  C   UNL     1      10.834   0.449  24.290  0.00  0.00    +0.000 C 
ATOM      7  C   UNL     1      10.142   1.791  24.175  0.00  0.00    +0.000 C 
ATOM      8  C   UNL     1       9.125  -1.221  23.891  0.00  0.00    +0.000 C 
ATOM      9  O   UNL     1       8.367  -0.625  24.658  0.00  0.00    +0.000 OA
ENDROOT
BRANCH   8  10
ATOM     10  C   UNL     1       9.344  -2.691  24.014  0.00  0.00    +0.000 C 
BRANCH  10  11
ATOM     11  O   UNL     1       8.339  -3.484  23.661  0.00  0.00    +0.000 OA
BRANCH  11  12
ATOM     12  C   UNL     1       7.972  -4.694  23.834  0.00  0.00    +0.000 A 
ATOM     13  C   UNL     1       6.979  -4.879  25.140  0.00  0.00    +0.000 A 
ATOM     14  C   UNL     1       5.753  -5.611  24.703  0.00  0.00    +0.000 A 
ATOM     15  C   UNL     1       5.187  -6.190  23.468  0.00  0.00    +0.000 A 
ATOM     16  C   UNL     1       3.749  -5.739  23.188  0.00  0.00    +0.000 C 
ATOM     17  C   UNL     1       6.159  -6.002  22.250  0.00  0.00    +0.000 A 
ATOM     18  C   UNL     1       7.476  -5.494  22.691  0.00  0.00    +0.000 A 
ENDBRANCH  11  12
ENDBRANCH  10  11
ENDBRANCH   8  10
TORSDOF 3
ENDMDL
MODEL 9
REMARK VINA RESULT:      -5.7      1.892      2.820
REMARK  Name = 
REMARK  3 active torsions:
REMARK  status: ('A' for Active; 'I' for Inactive)
REMARK    1  A    between atoms: C_8  and  C_10
REMARK    2  A    between atoms: C_10  and  O_11
REMARK    3  A    between atoms: O_11  and  C_12
REMARK                            x       y       z     vdW  Elec       q    Type
REMARK                         _______ _______ _______ _____ _____    ______ ____
ROOT
ATOM      1  C   UNL     1       8.634  -3.124  26.417  0.00  0.00    +0.000 C 
ATOM      2  N   UNL     1       8.198  -4.455  26.350  0.00  0.00    +0.000 NA
ATOM      3  C   UNL     1       8.820  -5.220  25.383  0.00  0.00    +0.000 C 
ATOM      4  C   UNL     1       8.203  -5.130  24.011  0.00  0.00    +0.000 C 
ATOM      5  N   UNL     1       6.982  -4.326  24.076  0.00  0.00    +0.000 N 
ATOM      6  C   UNL     1       6.062  -4.649  25.173  0.00  0.00    +0.000 C 
ATOM      7  C   UNL     1       6.824  -4.618  26.481  0.00  0.00    +0.000 C 
ATOM      8  C   UNL     1       7.114  -2.997  23.747  0.00  0.00    +0.000 C 
ATOM      9  O   UNL     1       7.104  -2.190  24.678  0.00  0.00    +0.000 OA
ENDROOT
BRANCH   8  10
ATOM     10  C   UNL     1       6.613  -2.616  22.394  0.00  0.00    +0.000 C 
BRANCH  10  11
ATOM     11  O   UNL     1       6.755  -1.347  22.033  0.00  0.00    +0.000 OA
BRANCH  11  12
ATOM     12  C   UNL     1       7.529  -0.643  21.300  0.00  0.00    +0.000 A 
ATOM     13  C   UNL     1       7.084   0.945  21.244  0.00  0.00    +0.000 A 
ATOM     14  C   UNL     1       8.274   1.782  21.582  0.00  0.00    +0.000 A 
ATOM     15  C   UNL     1       9.692   1.598  21.954  0.00  0.00    +0.000 A 
ATOM     16  C   UNL     1      10.096   2.371  23.213  0.00  0.00    +0.000 C 
ATOM     17  C   UNL     1      10.080   0.077  21.991  0.00  0.00    +0.000 A 
ATOM     18  C   UNL     1       8.998  -0.765  21.436  0.00  0.00    +0.000 A 
ENDBRANCH  11  12
ENDBRANCH  10  11
ENDBRANCH   8  10
TORSDOF 3
ENDMDL
