MODEL 1
REMARK VINA RESULT:      -6.0      0.000      0.000
REMARK  Name = 
REMARK  3 active torsions:
REMARK  status: ('A' for Active; 'I' for Inactive)
REMARK    1  A    between atoms: O_2  and  C_3
REMARK    2  A    between atoms: C_6  and  N_9
REMARK    3  A    between atoms: C_15  and  C_17
REMARK                            x       y       z     vdW  Elec       q    Type
REMARK                         _______ _______ _______ _____ _____    ______ ____
ROOT
ATOM      1  N   UNL     1       7.964  -1.294  23.352  0.00  0.00    +0.000 N 
ATOM      2  C   UNL     1       7.007  -1.955  24.227  0.00  0.00    +0.000 C 
ATOM      3  C   UNL     1       7.722  -2.691  25.346  0.00  0.00    +0.000 C 
ATOM      4  N   UNL     1       8.837  -3.460  24.769  0.00  0.00    +0.000 N 
ATOM      5  C   UNL     1       9.823  -2.737  23.977  0.00  0.00    +0.000 C 
ATOM      6  C   UNL     1       9.384  -1.291  23.791  0.00  0.00    +0.000 C 
ATOM      7  C   UNL     1       8.584  -4.759  24.464  0.00  0.00    +0.000 C 
ATOM      8  O   UNL     1       9.295  -5.654  24.846  0.00  0.00    +0.000 OA
ENDROOT
BRANCH   1  12
ATOM      9  C   UNL     1       6.629   0.022  19.734  0.00  0.00    +0.000 A 
ATOM     10  C   UNL     1       8.207   0.214  20.157  0.00  0.00    +0.000 A 
ATOM     11  C   UNL     1       8.581  -0.870  21.110  0.00  0.00    +0.000 A 
ATOM     12  C   UNL     1       7.869  -1.830  22.000  0.00  0.00    +0.000 A 
ATOM     13  C   UNL     1       6.417  -2.051  21.576  0.00  0.00    +0.000 A 
ATOM     14  C   UNL     1       6.084  -1.228  20.294  0.00  0.00    +0.000 A 
BRANCH   9  16
ATOM     15  C   UNL     1       4.877   1.497  19.135  0.00  0.00    +0.000 C 
ATOM     16  O   UNL     1       5.979   1.217  19.995  0.00  0.00    +0.000 OA
ENDBRANCH   9  16
ENDBRANCH   1  12
BRANCH   7  17
ATOM     17  C   UNL     1       7.296  -5.006  23.715  0.00  0.00    +0.000 C 
ATOM     18 CL   UNL     1       7.628  -5.888  22.204  0.00  0.00    +0.000 Cl
ENDBRANCH   7  17
TORSDOF 3
ENDMDL
MODEL 2
REMARK VINA RESULT:      -5.6      2.878      6.043
REMARK  Name = 
REMARK  3 active torsions:
REMARK  status: ('A' for Active; 'I' for Inactive)
REMARK    1  A    between atoms: O_2  and  C_3
REMARK    2  A    between atoms: C_6  and  N_9
REMARK    3  A    between atoms: C_15  and  C_17
REMARK                            x       y       z     vdW  Elec       q    Type
REMARK                         _______ _______ _______ _____ _____    ______ ____
ROOT
ATOM      1  N   UNL     1       7.592  -2.177  23.599  0.00  0.00    +0.000 N 
ATOM      2  C   UNL     1       6.998  -0.872  23.850  0.00  0.00    +0.000 C 
ATOM      3  C   UNL     1       7.168   0.037  22.646  0.00  0.00    +0.000 C 
ATOM      4  N   UNL     1       8.560  -0.055  22.178  0.00  0.00    +0.000 N 
ATOM      5  C   UNL     1       9.081  -1.374  21.848  0.00  0.00    +0.000 C 
ATOM      6  C   UNL     1       8.062  -2.444  22.215  0.00  0.00    +0.000 C 
ATOM      7  C   UNL     1       9.421   0.886  22.648  0.00  0.00    +0.000 C 
ATOM      8  O   UNL     1      10.120   1.534  21.911  0.00  0.00    +0.000 OA
ENDROOT
BRANCH   1  12
ATOM      9  C   UNL     1       8.464  -5.001  26.403  0.00  0.00    +0.000 A 
ATOM     10  C   UNL     1       9.009  -5.167  24.860  0.00  0.00    +0.000 A 
ATOM     11  C   UNL     1       9.167  -3.811  24.261  0.00  0.00    +0.000 A 
ATOM     12  C   UNL     1       8.673  -2.433  24.542  0.00  0.00    +0.000 A 
ATOM     13  C   UNL     1       8.215  -2.261  25.991  0.00  0.00    +0.000 A 
ATOM     14  C   UNL     1       8.425  -3.581  26.797  0.00  0.00    +0.000 A 
BRANCH   9  16
ATOM     15  C   UNL     1       6.156  -5.200  25.917  0.00  0.00    +0.000 C 
ATOM     16  O   UNL     1       7.315  -5.765  26.524  0.00  0.00    +0.000 OA
ENDBRANCH   9  16
ENDBRANCH   1  12
BRANCH   7  17
ATOM     17  C   UNL     1       9.354   1.135  24.135  0.00  0.00    +0.000 C 
ATOM     18 CL   UNL     1      10.775   0.424  24.939  0.00  0.00    +0.000 Cl
ENDBRANCH   7  17
TORSDOF 3
ENDMDL
MODEL 3
REMARK VINA RESULT:      -5.5      3.134      5.356
REMARK  Name = 
REMARK  3 active torsions:
REMARK  status: ('A' for Active; 'I' for Inactive)
REMARK    1  A    between atoms: O_2  and  C_3
REMARK    2  A    between atoms: C_6  and  N_9
REMARK    3  A    between atoms: C_15  and  C_17
REMARK                            x       y       z     vdW  Elec       q    Type
REMARK                         _______ _______ _______ _____ _____    ______ ____
ROOT
ATOM      1  N   UNL     1       9.058  -1.969  22.312  0.00  0.00    +0.000 N 
ATOM      2  C   UNL     1       8.599  -0.950  21.379  0.00  0.00    +0.000 C 
ATOM      3  C   UNL     1       9.445   0.306  21.497  0.00  0.00    +0.000 C 
ATOM      4  N   UNL     1       9.603   0.637  22.922  0.00  0.00    +0.000 N 
ATOM      5  C   UNL     1      10.155  -0.385  23.800  0.00  0.00    +0.000 C 
ATOM      6  C   UNL     1      10.324  -1.692  23.038  0.00  0.00    +0.000 C 
ATOM      7  C   UNL     1       8.720   1.531  23.438  0.00  0.00    +0.000 C 
ATOM      8  O   UNL     1       9.082   2.500  24.056  0.00  0.00    +0.000 OA
ENDROOT
BRANCH   1  12
ATOM      9  C   UNL     1       6.685  -5.181  23.122  0.00  0.00    +0.000 A 
ATOM     10  C   UNL     1       8.119  -4.989  23.904  0.00  0.00    +0.000 A 
ATOM     11  C   UNL     1       8.436  -3.534  23.971  0.00  0.00    +0.000 A 
ATOM     12  C   UNL     1       8.005  -2.294  23.266  0.00  0.00    +0.000 A 
ATOM     13  C   UNL     1       6.647  -2.452  22.583  0.00  0.00    +0.000 A 
ATOM     14  C   UNL     1       6.062  -3.875  22.841  0.00  0.00    +0.000 A 
BRANCH   9  16
ATOM     15  C   UNL     1       6.196  -5.747  20.875  0.00  0.00    +0.000 C 
ATOM     16  O   UNL     1       6.896  -6.066  22.076  0.00  0.00    +0.000 OA
ENDBRANCH   9  16
ENDBRANCH   1  12
BRANCH   7  17
ATOM     17  C   UNL     1       7.273   1.283  23.086  0.00  0.00    +0.000 C 
ATOM     18 CL   UNL     1       6.680   2.564  22.000  0.00  0.00    +0.000 Cl
ENDBRANCH   7  17
TORSDOF 3
ENDMDL
MODEL 4
REMARK VINA RESULT:      -5.4      2.327      5.921
REMARK  Name = 
REMARK  3 active torsions:
REMARK  status: ('A' for Active; 'I' for Inactive)
REMARK    1  A    between atoms: O_2  and  C_3
REMARK    2  A    between atoms: C_6  and  N_9
REMARK    3  A    between atoms: C_15  and  C_17
REMARK                            x       y       z     vdW  Elec       q    Type
REMARK                         _______ _______ _______ _____ _____    ______ ____
ROOT
ATOM      1  N   UNL     1       9.255  -1.698  23.855  0.00  0.00    +0.000 N 
ATOM      2  C   UNL     1       9.626  -1.633  22.449  0.00  0.00    +0.000 C 
ATOM      3  C   UNL     1      10.009  -0.216  22.060  0.00  0.00    +0.000 C 
ATOM      4  N   UNL     1       8.998   0.710  22.594  0.00  0.00    +0.000 N 
ATOM      5  C   UNL     1       8.729   0.673  24.025  0.00  0.00    +0.000 C 
ATOM      6  C   UNL     1       9.491  -0.478  24.668  0.00  0.00    +0.000 C 
ATOM      7  C   UNL     1       7.990   1.059  21.752  0.00  0.00    +0.000 C 
ATOM      8  O   UNL     1       7.696   2.211  21.553  0.00  0.00    +0.000 OA
ENDROOT
BRANCH   1  12
ATOM      9  C   UNL     1       7.269  -4.813  25.576  0.00  0.00    +0.000 A 
ATOM     10  C   UNL     1       7.525  -3.424  26.418  0.00  0.00    +0.000 A 
ATOM     11  C   UNL     1       7.618  -2.290  25.454  0.00  0.00    +0.000 A 
ATOM     12  C   UNL     1       7.867  -2.122  23.995  0.00  0.00    +0.000 A 
ATOM     13  C   UNL     1       7.579  -3.396  23.202  0.00  0.00    +0.000 A 
ATOM     14  C   UNL     1       7.064  -4.529  24.144  0.00  0.00    +0.000 A 
BRANCH   9  16
ATOM     15  C   UNL     1       9.571  -5.366  25.532  0.00  0.00    +0.000 C 
ATOM     16  O   UNL     1       8.254  -5.714  25.949  0.00  0.00    +0.000 OA
ENDBRANCH   9  16
ENDBRANCH   1  12
BRANCH   7  17
ATOM     17  C   UNL     1       7.351  -0.085  21.003  0.00  0.00    +0.000 C 
ATOM     18 CL   UNL     1       7.708   0.046  19.264  0.00  0.00    +0.000 Cl
ENDBRANCH   7  17
TORSDOF 3
ENDMDL
MODEL 5
REMARK VINA RESULT:      -5.4      2.553      3.525
REMARK  Name = 
REMARK  3 active torsions:
REMARK  status: ('A' for Active; 'I' for Inactive)
REMARK    1  A    between atoms: O_2  and  C_3
REMARK    2  A    between atoms: C_6  and  N_9
REMARK    3  A    between atoms: C_15  and  C_17
REMARK                            x       y       z     vdW  Elec       q    Type
REMARK                         _______ _______ _______ _____ _____    ______ ____
ROOT
ATOM      1  N   UNL     1       7.317  -1.611  24.526  0.00  0.00    +0.000 N 
ATOM      2  C   UNL     1       6.923  -2.729  23.681  0.00  0.00    +0.000 C 
ATOM      3  C   UNL     1       6.025  -3.687  24.444  0.00  0.00    +0.000 C 
ATOM      4  N   UNL     1       6.620  -3.942  25.765  0.00  0.00    +0.000 N 
ATOM      5  C   UNL     1       6.910  -2.795  26.614  0.00  0.00    +0.000 C 
ATOM      6  C   UNL     1       6.653  -1.503  25.850  0.00  0.00    +0.000 C 
ATOM      7  C   UNL     1       7.404  -5.047  25.873  0.00  0.00    +0.000 C 
ATOM      8  O   UNL     1       7.237  -5.864  26.744  0.00  0.00    +0.000 OA
ENDROOT
BRANCH   1  12
ATOM      9  C   UNL     1      10.442   0.575  23.089  0.00  0.00    +0.000 A 
ATOM     10  C   UNL     1       9.699   1.010  24.490  0.00  0.00    +0.000 A 
ATOM     11  C   UNL     1       9.124  -0.210  25.126  0.00  0.00    +0.000 A 
ATOM     12  C   UNL     1       8.764  -1.592  24.699  0.00  0.00    +0.000 A 
ATOM     13  C   UNL     1       9.495  -2.019  23.426  0.00  0.00    +0.000 A 
ATOM     14  C   UNL     1      10.455  -0.891  22.935  0.00  0.00    +0.000 A 
BRANCH   9  16
ATOM     15  C   UNL     1       8.645   0.913  21.586  0.00  0.00    +0.000 C 
ATOM     16  O   UNL     1       9.910   1.354  22.075  0.00  0.00    +0.000 OA
ENDBRANCH   9  16
ENDBRANCH   1  12
BRANCH   7  17
ATOM     17  C   UNL     1       8.415  -5.230  24.767  0.00  0.00    +0.000 C 
ATOM     18 CL   UNL     1      10.064  -5.023  25.406  0.00  0.00    +0.000 Cl
ENDBRANCH   7  17
TORSDOF 3
ENDMDL
MODEL 6
REMARK VINA RESULT:      -5.3      2.916      5.094
REMARK  Name = 
REMARK  3 active torsions:
REMARK  status: ('A' for Active; 'I' for Inactive)
REMARK    1  A    between atoms: O_2  and  C_3
REMARK    2  A    between atoms: C_6  and  N_9
REMARK    3  A    between atoms: C_15  and  C_17
REMARK                            x       y       z     vdW  Elec       q    Type
REMARK                         _______ _______ _______ _____ _____    ______ ____
ROOT
ATOM      1  N   UNL     1       8.272  -2.031  24.059  0.00  0.00    +0.000 N 
ATOM      2  C   UNL     1       9.206  -2.354  22.990  0.00  0.00    +0.000 C 
ATOM      3  C   UNL     1      10.385  -1.398  23.000  0.00  0.00    +0.000 C 
ATOM      4  N   UNL     1       9.878  -0.023  23.138  0.00  0.00    +0.000 N 
ATOM      5  C   UNL     1       9.022   0.275  24.278  0.00  0.00    +0.000 C 
ATOM      6  C   UNL     1       8.706  -1.005  25.041  0.00  0.00    +0.000 C 
ATOM      7  C   UNL     1       9.692   0.673  21.986  0.00  0.00    +0.000 C 
ATOM      8  O   UNL     1      10.153   1.775  21.826  0.00  0.00    +0.000 OA
ENDROOT
BRANCH   1  12
ATOM      9  C   UNL     1       4.683  -3.867  23.464  0.00  0.00    +0.000 A 
ATOM     10  C   UNL     1       4.966  -3.025  24.848  0.00  0.00    +0.000 A 
ATOM     11  C   UNL     1       5.963  -1.955  24.562  0.00  0.00    +0.000 A 
ATOM     12  C   UNL     1       6.974  -1.665  23.506  0.00  0.00    +0.000 A 
ATOM     13  C   UNL     1       6.683  -2.404  22.200  0.00  0.00    +0.000 A 
ATOM     14  C   UNL     1       5.373  -3.244  22.320  0.00  0.00    +0.000 A 
BRANCH   9  16
ATOM     15  C   UNL     1       5.623  -5.910  22.725  0.00  0.00    +0.000 C 
ATOM     16  O   UNL     1       4.906  -5.207  23.737  0.00  0.00    +0.000 OA
ENDBRANCH   9  16
ENDBRANCH   1  12
BRANCH   7  17
ATOM     17  C   UNL     1       8.972  -0.075  20.890  0.00  0.00    +0.000 C 
ATOM     18 CL   UNL     1       7.486   0.794  20.433  0.00  0.00    +0.000 Cl
ENDBRANCH   7  17
TORSDOF 3
ENDMDL
MODEL 7
REMARK VINA RESULT:      -5.3      2.196      2.827
REMARK  Name = 
REMARK  3 active torsions:
REMARK  status: ('A' for Active; 'I' for Inactive)
REMARK    1  A    between atoms: O_2  and  C_3
REMARK    2  A    between atoms: C_6  and  N_9
REMARK    3  A    between atoms: C_15  and  C_17
REMARK                            x       y       z     vdW  Elec       q    Type
REMARK                         _______ _______ _______ _____ _____    ______ ____
ROOT
ATOM      1  N   UNL     1       7.836  -1.177  24.793  0.00  0.00    +0.000 N 
ATOM      2  C   UNL     1       6.784  -1.981  24.188  0.00  0.00    +0.000 C 
ATOM      3  C   UNL     1       6.253  -3.003  25.178  0.00  0.00    +0.000 C 
ATOM      4  N   UNL     1       7.392  -3.663  25.834  0.00  0.00    +0.000 N 
ATOM      5  C   UNL     1       8.370  -2.820  26.509  0.00  0.00    +0.000 C 
ATOM      6  C   UNL     1       8.059  -1.352  26.252  0.00  0.00    +0.000 C 
ATOM      7  C   UNL     1       7.810  -4.835  25.289  0.00  0.00    +0.000 C 
ATOM      8  O   UNL     1       7.956  -5.830  25.953  0.00  0.00    +0.000 OA
ENDROOT
BRANCH   1  12
ATOM      9  C   UNL     1      10.113   0.986  22.197  0.00  0.00    +0.000 A 
ATOM     10  C   UNL     1      10.390   1.073  23.816  0.00  0.00    +0.000 A 
ATOM     11  C   UNL     1       9.965  -0.211  24.443  0.00  0.00    +0.000 A 
ATOM     12  C   UNL     1       9.092  -1.363  24.079  0.00  0.00    +0.000 A 
ATOM     13  C   UNL     1       8.876  -1.478  22.570  0.00  0.00    +0.000 A 
ATOM     14  C   UNL     1       9.665  -0.365  21.812  0.00  0.00    +0.000 A 
BRANCH   9  16
ATOM     15  C   UNL     1       7.928   1.851  21.906  0.00  0.00    +0.000 C 
ATOM     16  O   UNL     1       9.334   2.078  21.848  0.00  0.00    +0.000 OA
ENDBRANCH   9  16
ENDBRANCH   1  12
BRANCH   7  17
ATOM     17  C   UNL     1       7.965  -4.828  23.788  0.00  0.00    +0.000 C 
ATOM     18 CL   UNL     1       6.644  -5.753  23.032  0.00  0.00    +0.000 Cl
ENDBRANCH   7  17
TORSDOF 3
ENDMDL
MODEL 8
REMARK VINA RESULT:      -5.2      2.151      2.854
REMARK  Name = 
REMARK  3 active torsions:
REMARK  status: ('A' for Active; 'I' for Inactive)
REMARK    1  A    between atoms: O_2  and  C_3
REMARK    2  A    between atoms: C_6  and  N_9
REMARK    3  A    between atoms: C_15  and  C_17
REMARK                            x       y       z     vdW  Elec       q    Type
REMARK                         _______ _______ _______ _____ _____    ______ ____
ROOT
ATOM      1  N   UNL     1       7.517  -2.117  24.331  0.00  0.00    +0.000 N 
ATOM      2  C   UNL     1       6.067  -2.033  24.231  0.00  0.00    +0.000 C 
ATOM      3  C   UNL     1       5.408  -3.105  25.080  0.00  0.00    +0.000 C 
ATOM      4  N   UNL     1       6.085  -4.387  24.832  0.00  0.00    +0.000 N 
ATOM      5  C   UNL     1       7.525  -4.447  25.037  0.00  0.00    +0.000 C 
ATOM      6  C   UNL     1       8.066  -3.057  25.342  0.00  0.00    +0.000 C 
ATOM      7  C   UNL     1       5.527  -5.195  23.892  0.00  0.00    +0.000 C 
ATOM      8  O   UNL     1       5.276  -6.353  24.115  0.00  0.00    +0.000 OA
ENDROOT
BRANCH   1  12
ATOM      9  C   UNL     1       9.646  -0.066  21.525  0.00  0.00    +0.000 A 
ATOM     10  C   UNL     1      10.422  -0.926  22.693  0.00  0.00    +0.000 A 
ATOM     11  C   UNL     1       9.546  -2.054  23.119  0.00  0.00    +0.000 A 
ATOM     12  C   UNL     1       8.100  -2.403  23.026  0.00  0.00    +0.000 A 
ATOM     13  C   UNL     1       7.387  -1.645  21.906  0.00  0.00    +0.000 A 
ATOM     14  C   UNL     1       8.387  -0.728  21.136  0.00  0.00    +0.000 A 
BRANCH   9  16
ATOM     15  C   UNL     1       8.336   1.883  21.824  0.00  0.00    +0.000 C 
ATOM     16  O   UNL     1       9.612   1.257  21.934  0.00  0.00    +0.000 OA
ENDBRANCH   9  16
ENDBRANCH   1  12
BRANCH   7  17
ATOM     17  C   UNL     1       5.146  -4.513  22.601  0.00  0.00    +0.000 C 
ATOM     18 CL   UNL     1       6.200  -5.072  21.279  0.00  0.00    +0.000 Cl
ENDBRANCH   7  17
TORSDOF 3
ENDMDL
MODEL 9
REMARK VINA RESULT:      -5.2      2.729      3.763
REMARK  Name = 
REMARK  3 active torsions:
REMARK  status: ('A' for Active; 'I' for Inactive)
REMARK    1  A    between atoms: O_2  and  C_3
REMARK    2  A    between atoms: C_6  and  N_9
REMARK    3  A    between atoms: C_15  and  C_17
REMARK                            x       y       z     vdW  Elec       q    Type
REMARK                         _______ _______ _______ _____ _____    ______ ____
ROOT
ATOM      1  N   UNL     1       6.960  -1.670  23.951  0.00  0.00    +0.000 N 
ATOM      2  C   UNL     1       6.400  -2.174  22.706  0.00  0.00    +0.000 C 
ATOM      3  C   UNL     1       5.235  -3.109  22.980  0.00  0.00    +0.000 C 
ATOM      4  N   UNL     1       5.625  -4.051  24.041  0.00  0.00    +0.000 N 
ATOM      5  C   UNL     1       6.090  -3.498  25.305  0.00  0.00    +0.000 C 
ATOM      6  C   UNL     1       6.214  -1.984  25.197  0.00  0.00    +0.000 C 
ATOM      7  C   UNL     1       6.118  -5.251  23.635  0.00  0.00    +0.000 C 
ATOM      8  O   UNL     1       5.683  -6.293  24.056  0.00  0.00    +0.000 OA
ENDROOT
BRANCH   1  12
ATOM      9  C   UNL     1      10.627   0.083  23.667  0.00  0.00    +0.000 A 
ATOM     10  C   UNL     1       9.860  -0.007  25.119  0.00  0.00    +0.000 A 
ATOM     11  C   UNL     1       8.964  -1.199  25.113  0.00  0.00    +0.000 A 
ATOM     12  C   UNL     1       8.348  -2.091  24.091  0.00  0.00    +0.000 A 
ATOM     13  C   UNL     1       9.092  -2.050  22.756  0.00  0.00    +0.000 A 
ATOM     14  C   UNL     1      10.326  -1.099  22.839  0.00  0.00    +0.000 A 
BRANCH   9  16
ATOM     15  C   UNL     1       9.745   1.357  21.877  0.00  0.00    +0.000 C 
ATOM     16  O   UNL     1      10.391   1.346  23.148  0.00  0.00    +0.000 OA
ENDBRANCH   9  16
ENDBRANCH   1  12
BRANCH   7  17
ATOM     17  C   UNL     1       7.160  -5.184  22.546  0.00  0.00    +0.000 C 
ATOM     18 CL   UNL     1       6.488  -5.803  21.018  0.00  0.00    +0.000 Cl
ENDBRANCH   7  17
TORSDOF 3
ENDMDL
