MODEL 1
REMARK VINA RESULT:      -6.1      0.000      0.000
REMARK  Name = 
REMARK  3 active torsions:
REMARK  status: ('A' for Active; 'I' for Inactive)
REMARK    1  A    between atoms: C_2  and  C_3
REMARK    2  A    between atoms: N_8  and  S_11
REMARK    3  A    between atoms: S_11  and  C_14
REMARK                            x       y       z     vdW  Elec       q    Type
REMARK                         _______ _______ _______ _____ _____    ______ ____
ROOT
ATOM      1  C   UNL     1       6.731  -5.424  26.011  0.00  0.00    +0.000 C 
ATOM      2  O   UNL     1       7.857  -5.782  26.300  0.00  0.00    +0.000 OA
ATOM      3  N   UNL     1       6.467  -4.903  24.790  0.00  0.00    +0.000 N 
ATOM      4  C   UNL     1       7.388  -5.178  23.692  0.00  0.00    +0.000 C 
ATOM      5  C   UNL     1       7.594  -3.902  22.897  0.00  0.00    +0.000 C 
ATOM      6  N   UNL     1       7.614  -2.760  23.700  0.00  0.00    +0.000 NA
ATOM      7  C   UNL     1       6.446  -2.505  24.415  0.00  0.00    +0.000 C 
ATOM      8  C   UNL     1       5.609  -3.733  24.693  0.00  0.00    +0.000 C 
ENDROOT
BRANCH   6   9
ATOM      9  S   UNL     1       8.966  -2.648  24.618  0.00  0.00    +0.000 S 
ATOM     10  O   UNL     1       8.569  -2.552  26.006  0.00  0.00    +0.000 OA
ATOM     11  O   UNL     1       9.826  -3.769  24.315  0.00  0.00    +0.000 OA
BRANCH   9  12
ATOM     12  C   UNL     1       9.830  -1.162  24.186  0.00  0.00    +0.000 C 
ATOM     13  C   UNL     1       9.711  -0.137  25.323  0.00  0.00    +0.000 C 
ATOM     14  C   UNL     1       9.887   1.224  24.503  0.00  0.00    +0.000 C 
ATOM     15  C   UNL     1       9.288   1.199  23.205  0.00  0.00    +0.000 C 
ATOM     16 CL   UNL     1      10.255   1.947  22.006  0.00  0.00    +0.000 Cl
ATOM     17  S   UNL     1       9.169  -0.427  22.883  0.00  0.00    +0.000 S 
ENDBRANCH   9  12
ENDBRANCH   6   9
BRANCH   1  19
ATOM     18 CL   UNL     1       4.620  -7.030  25.545  0.00  0.00    +0.000 Cl
ATOM     19  C   UNL     1       5.526  -6.033  26.716  0.00  0.00    +0.000 C 
ENDBRANCH   1  19
TORSDOF 3
ENDMDL
MODEL 2
REMARK VINA RESULT:      -5.7      2.132      6.254
REMARK  Name = 
REMARK  3 active torsions:
REMARK  status: ('A' for Active; 'I' for Inactive)
REMARK    1  A    between atoms: C_2  and  C_3
REMARK    2  A    between atoms: N_8  and  S_11
REMARK    3  A    between atoms: S_11  and  C_14
REMARK                            x       y       z     vdW  Elec       q    Type
REMARK                         _______ _______ _______ _____ _____    ______ ____
ROOT
ATOM      1  C   UNL     1       9.309  -0.796  22.164  0.00  0.00    +0.000 C 
ATOM      2  O   UNL     1      10.145  -1.649  21.933  0.00  0.00    +0.000 OA
ATOM      3  N   UNL     1       8.866  -0.590  23.426  0.00  0.00    +0.000 N 
ATOM      4  C   UNL     1       9.684  -1.049  24.544  0.00  0.00    +0.000 C 
ATOM      5  C   UNL     1       8.779  -1.685  25.582  0.00  0.00    +0.000 C 
ATOM      6  N   UNL     1       7.717  -2.393  25.016  0.00  0.00    +0.000 NA
ATOM      7  C   UNL     1       6.836  -1.642  24.242  0.00  0.00    +0.000 C 
ATOM      8  C   UNL     1       7.443  -0.390  23.651  0.00  0.00    +0.000 C 
ENDROOT
BRANCH   6   9
ATOM      9  S   UNL     1       8.192  -3.780  24.285  0.00  0.00    +0.000 S 
ATOM     10  O   UNL     1       7.797  -3.720  22.894  0.00  0.00    +0.000 OA
ATOM     11  O   UNL     1       9.610  -3.955  24.499  0.00  0.00    +0.000 OA
BRANCH   9  12
ATOM     12  C   UNL     1       7.350  -5.143  25.041  0.00  0.00    +0.000 C 
ATOM     13  C   UNL     1       6.037  -5.428  24.295  0.00  0.00    +0.000 C 
ATOM     14  C   UNL     1       5.184  -6.107  25.464  0.00  0.00    +0.000 C 
ATOM     15  C   UNL     1       5.418  -5.540  26.756  0.00  0.00    +0.000 C 
ATOM     16 CL   UNL     1       5.510  -6.715  27.997  0.00  0.00    +0.000 Cl
ATOM     17  S   UNL     1       6.900  -4.809  26.577  0.00  0.00    +0.000 S 
ENDBRANCH   9  12
ENDBRANCH   6   9
BRANCH   1  19
ATOM     18 CL   UNL     1       8.100  -0.071  19.869  0.00  0.00    +0.000 Cl
ATOM     19  C   UNL     1       9.152   0.399  21.233  0.00  0.00    +0.000 C 
ENDBRANCH   1  19
TORSDOF 3
ENDMDL
MODEL 3
REMARK VINA RESULT:      -5.7      2.843      6.774
REMARK  Name = 
REMARK  3 active torsions:
REMARK  status: ('A' for Active; 'I' for Inactive)
REMARK    1  A    between atoms: C_2  and  C_3
REMARK    2  A    between atoms: N_8  and  S_11
REMARK    3  A    between atoms: S_11  and  C_14
REMARK                            x       y       z     vdW  Elec       q    Type
REMARK                         _______ _______ _______ _____ _____    ______ ____
ROOT
ATOM      1  C   UNL     1       9.137   2.299  23.305  0.00  0.00    +0.000 C 
ATOM      2  O   UNL     1       8.202   2.352  22.529  0.00  0.00    +0.000 OA
ATOM      3  N   UNL     1       9.994   1.252  23.279  0.00  0.00    +0.000 N 
ATOM      4  C   UNL     1      10.077   0.438  22.070  0.00  0.00    +0.000 C 
ATOM      5  C   UNL     1      10.147  -1.024  22.470  0.00  0.00    +0.000 C 
ATOM      6  N   UNL     1       9.365  -1.319  23.589  0.00  0.00    +0.000 NA
ATOM      7  C   UNL     1       9.713  -0.651  24.760  0.00  0.00    +0.000 C 
ATOM      8  C   UNL     1      10.427   0.663  24.537  0.00  0.00    +0.000 C 
ENDROOT
BRANCH   6   9
ATOM      9  S   UNL     1       7.758  -1.271  23.275  0.00  0.00    +0.000 S 
ATOM     10  O   UNL     1       7.127  -0.418  24.259  0.00  0.00    +0.000 OA
ATOM     11  O   UNL     1       7.566  -0.854  21.906  0.00  0.00    +0.000 OA
BRANCH   9  12
ATOM     12  C   UNL     1       7.092  -2.904  23.450  0.00  0.00    +0.000 C 
ATOM     13  C   UNL     1       8.194  -3.874  23.903  0.00  0.00    +0.000 C 
ATOM     14  C   UNL     1       7.619  -5.250  23.327  0.00  0.00    +0.000 C 
ATOM     15  C   UNL     1       6.955  -5.117  22.068  0.00  0.00    +0.000 C 
ATOM     16 CL   UNL     1       5.527  -6.055  21.962  0.00  0.00    +0.000 Cl
ATOM     17  S   UNL     1       6.561  -3.504  22.025  0.00  0.00    +0.000 S 
ENDBRANCH   9  12
ENDBRANCH   6   9
BRANCH   1  19
ATOM     18 CL   UNL     1      11.378   3.792  23.304  0.00  0.00    +0.000 Cl
ATOM     19  C   UNL     1       9.711   3.574  23.906  0.00  0.00    +0.000 C 
ENDBRANCH   1  19
TORSDOF 3
ENDMDL
MODEL 4
REMARK VINA RESULT:      -5.6      2.046      6.439
REMARK  Name = 
REMARK  3 active torsions:
REMARK  status: ('A' for Active; 'I' for Inactive)
REMARK    1  A    between atoms: C_2  and  C_3
REMARK    2  A    between atoms: N_8  and  S_11
REMARK    3  A    between atoms: S_11  and  C_14
REMARK                            x       y       z     vdW  Elec       q    Type
REMARK                         _______ _______ _______ _____ _____    ______ ____
ROOT
ATOM      1  C   UNL     1       9.659   0.360  22.942  0.00  0.00    +0.000 C 
ATOM      2  O   UNL     1      10.622  -0.348  22.716  0.00  0.00    +0.000 OA
ATOM      3  N   UNL     1       8.859   0.113  24.006  0.00  0.00    +0.000 N 
ATOM      4  C   UNL     1       9.381  -0.686  25.110  0.00  0.00    +0.000 C 
ATOM      5  C   UNL     1       8.304  -1.655  25.562  0.00  0.00    +0.000 C 
ATOM      6  N   UNL     1       7.536  -2.146  24.504  0.00  0.00    +0.000 NA
ATOM      7  C   UNL     1       6.824  -1.190  23.783  0.00  0.00    +0.000 C 
ATOM      8  C   UNL     1       7.417   0.199  23.839  0.00  0.00    +0.000 C 
ENDROOT
BRANCH   6   9
ATOM      9  S   UNL     1       8.360  -3.189  23.547  0.00  0.00    +0.000 S 
ATOM     10  O   UNL     1       8.311  -2.697  22.188  0.00  0.00    +0.000 OA
ATOM     11  O   UNL     1       9.693  -3.352  24.080  0.00  0.00    +0.000 OA
BRANCH   9  12
ATOM     12  C   UNL     1       7.554  -4.767  23.594  0.00  0.00    +0.000 C 
ATOM     13  C   UNL     1       7.176  -5.204  22.171  0.00  0.00    +0.000 C 
ATOM     14  C   UNL     1       5.937  -6.165  22.485  0.00  0.00    +0.000 C 
ATOM     15  C   UNL     1       5.120  -5.719  23.571  0.00  0.00    +0.000 C 
ATOM     16 CL   UNL     1       4.616  -6.994  24.597  0.00  0.00    +0.000 Cl
ATOM     17  S   UNL     1       6.137  -4.706  24.408  0.00  0.00    +0.000 S 
ENDBRANCH   9  12
ENDBRANCH   6   9
BRANCH   1  19
ATOM     18 CL   UNL     1      10.133   2.877  23.773  0.00  0.00    +0.000 Cl
ATOM     19  C   UNL     1       9.627   1.798  22.444  0.00  0.00    +0.000 C 
ENDBRANCH   1  19
TORSDOF 3
ENDMDL
MODEL 5
REMARK VINA RESULT:      -5.5      2.722      3.238
REMARK  Name = 
REMARK  3 active torsions:
REMARK  status: ('A' for Active; 'I' for Inactive)
REMARK    1  A    between atoms: C_2  and  C_3
REMARK    2  A    between atoms: N_8  and  S_11
REMARK    3  A    between atoms: S_11  and  C_14
REMARK                            x       y       z     vdW  Elec       q    Type
REMARK                         _______ _______ _______ _____ _____    ______ ____
ROOT
ATOM      1  C   UNL     1       5.822  -4.306  23.328  0.00  0.00    +0.000 C 
ATOM      2  O   UNL     1       4.829  -3.607  23.246  0.00  0.00    +0.000 OA
ATOM      3  N   UNL     1       6.844  -3.956  24.143  0.00  0.00    +0.000 N 
ATOM      4  C   UNL     1       6.587  -3.021  25.234  0.00  0.00    +0.000 C 
ATOM      5  C   UNL     1       7.736  -2.031  25.308  0.00  0.00    +0.000 C 
ATOM      6  N   UNL     1       8.237  -1.686  24.052  0.00  0.00    +0.000 NA
ATOM      7  C   UNL     1       8.769  -2.736  23.306  0.00  0.00    +0.000 C 
ATOM      8  C   UNL     1       8.209  -4.094  23.661  0.00  0.00    +0.000 C 
ENDROOT
BRANCH   6   9
ATOM      9  S   UNL     1       7.211  -0.743  23.192  0.00  0.00    +0.000 S 
ATOM     10  O   UNL     1       6.894  -1.423  21.955  0.00  0.00    +0.000 OA
ATOM     11  O   UNL     1       6.067  -0.431  24.017  0.00  0.00    +0.000 OA
BRANCH   9  12
ATOM     12  C   UNL     1       8.030   0.778  22.793  0.00  0.00    +0.000 C 
ATOM     13  C   UNL     1       9.044   0.546  21.663  0.00  0.00    +0.000 C 
ATOM     14  C   UNL     1      10.077   1.730  21.956  0.00  0.00    +0.000 C 
ATOM     15  C   UNL     1      10.277   1.991  23.348  0.00  0.00    +0.000 C 
ATOM     16 CL   UNL     1      10.361   3.662  23.710  0.00  0.00    +0.000 Cl
ATOM     17  S   UNL     1       8.916   1.343  24.046  0.00  0.00    +0.000 S 
ENDBRANCH   9  12
ENDBRANCH   6   9
BRANCH   1  19
ATOM     18 CL   UNL     1       6.245  -6.045  21.316  0.00  0.00    +0.000 Cl
ATOM     19  C   UNL     1       5.743  -5.793  23.011  0.00  0.00    +0.000 C 
ENDBRANCH   1  19
TORSDOF 3
ENDMDL
MODEL 6
REMARK VINA RESULT:      -5.5      2.969      3.924
REMARK  Name = 
REMARK  3 active torsions:
REMARK  status: ('A' for Active; 'I' for Inactive)
REMARK    1  A    between atoms: C_2  and  C_3
REMARK    2  A    between atoms: N_8  and  S_11
REMARK    3  A    between atoms: S_11  and  C_14
REMARK                            x       y       z     vdW  Elec       q    Type
REMARK                         _______ _______ _______ _____ _____    ______ ____
ROOT
ATOM      1  C   UNL     1       7.678  -2.867  22.893  0.00  0.00    +0.000 C 
ATOM      2  O   UNL     1       8.434  -3.161  23.799  0.00  0.00    +0.000 OA
ATOM      3  N   UNL     1       8.031  -1.935  21.977  0.00  0.00    +0.000 N 
ATOM      4  C   UNL     1       9.445  -1.616  21.804  0.00  0.00    +0.000 C 
ATOM      5  C   UNL     1       9.593  -0.112  21.667  0.00  0.00    +0.000 C 
ATOM      6  N   UNL     1       8.700   0.597  22.472  0.00  0.00    +0.000 NA
ATOM      7  C   UNL     1       7.349   0.384  22.206  0.00  0.00    +0.000 C 
ATOM      8  C   UNL     1       7.046  -0.948  21.560  0.00  0.00    +0.000 C 
ENDROOT
BRANCH   6   9
ATOM      9  S   UNL     1       9.064   0.502  24.066  0.00  0.00    +0.000 S 
ATOM     10  O   UNL     1       7.902   0.004  24.770  0.00  0.00    +0.000 OA
ATOM     11  O   UNL     1      10.253  -0.305  24.222  0.00  0.00    +0.000 OA
BRANCH   9  12
ATOM     12  C   UNL     1       9.421   2.129  24.670  0.00  0.00    +0.000 C 
ATOM     13  C   UNL     1       8.134   2.794  25.177  0.00  0.00    +0.000 C 
ATOM     14  C   UNL     1       8.512   4.336  24.987  0.00  0.00    +0.000 C 
ATOM     15  C   UNL     1       9.300   4.598  23.823  0.00  0.00    +0.000 C 
ATOM     16 CL   UNL     1      10.550   5.735  24.102  0.00  0.00    +0.000 Cl
ATOM     17  S   UNL     1       9.968   3.115  23.485  0.00  0.00    +0.000 S 
ENDBRANCH   9  12
ENDBRANCH   6   9
BRANCH   1  19
ATOM     18 CL   UNL     1       7.393  -5.466  22.247  0.00  0.00    +0.000 Cl
ATOM     19  C   UNL     1       6.629  -3.861  22.414  0.00  0.00    +0.000 C 
ENDBRANCH   1  19
TORSDOF 3
ENDMDL
MODEL 7
REMARK VINA RESULT:      -5.5      3.003      3.759
REMARK  Name = 
REMARK  3 active torsions:
REMARK  status: ('A' for Active; 'I' for Inactive)
REMARK    1  A    between atoms: C_2  and  C_3
REMARK    2  A    between atoms: N_8  and  S_11
REMARK    3  A    between atoms: S_11  and  C_14
REMARK                            x       y       z     vdW  Elec       q    Type
REMARK                         _______ _______ _______ _____ _____    ______ ____
ROOT
ATOM      1  C   UNL     1       8.942  -2.995  24.216  0.00  0.00    +0.000 C 
ATOM      2  O   UNL     1      10.070  -2.905  23.769  0.00  0.00    +0.000 OA
ATOM      3  N   UNL     1       7.892  -2.467  23.545  0.00  0.00    +0.000 N 
ATOM      4  C   UNL     1       8.030  -2.200  22.117  0.00  0.00    +0.000 C 
ATOM      5  C   UNL     1       7.398  -0.855  21.809  0.00  0.00    +0.000 C 
ATOM      6  N   UNL     1       7.591   0.081  22.826  0.00  0.00    +0.000 NA
ATOM      7  C   UNL     1       7.044  -0.252  24.063  0.00  0.00    +0.000 C 
ATOM      8  C   UNL     1       6.876  -1.738  24.287  0.00  0.00    +0.000 C 
ENDROOT
BRANCH   6   9
ATOM      9  S   UNL     1       9.140   0.603  22.929  0.00  0.00    +0.000 S 
ATOM     10  O   UNL     1       9.628   0.325  24.262  0.00  0.00    +0.000 OA
ATOM     11  O   UNL     1       9.906  -0.009  21.868  0.00  0.00    +0.000 OA
BRANCH   9  12
ATOM     12  C   UNL     1       9.169   2.358  22.684  0.00  0.00    +0.000 C 
ATOM     13  C   UNL     1       9.540   3.064  23.997  0.00  0.00    +0.000 C 
ATOM     14  C   UNL     1       8.844   4.485  23.765  0.00  0.00    +0.000 C 
ATOM     15  C   UNL     1       7.599   4.412  23.067  0.00  0.00    +0.000 C 
ATOM     16 CL   UNL     1       7.407   5.658  21.909  0.00  0.00    +0.000 Cl
ATOM     17  S   UNL     1       7.695   2.946  22.290  0.00  0.00    +0.000 S 
ENDBRANCH   9  12
ENDBRANCH   6   9
BRANCH   1  19
ATOM     18 CL   UNL     1      10.046  -5.095  25.491  0.00  0.00    +0.000 Cl
ATOM     19  C   UNL     1       8.582  -4.124  25.172  0.00  0.00    +0.000 C 
ENDBRANCH   1  19
TORSDOF 3
ENDMDL
MODEL 8
REMARK VINA RESULT:      -5.4      1.845      2.334
REMARK  Name = 
REMARK  3 active torsions:
REMARK  status: ('A' for Active; 'I' for Inactive)
REMARK    1  A    between atoms: C_2  and  C_3
REMARK    2  A    between atoms: N_8  and  S_11
REMARK    3  A    between atoms: S_11  and  C_14
REMARK                            x       y       z     vdW  Elec       q    Type
REMARK                         _______ _______ _______ _____ _____    ______ ____
ROOT
ATOM      1  C   UNL     1       6.571  -4.421  25.336  0.00  0.00    +0.000 C 
ATOM      2  O   UNL     1       6.444  -3.679  26.291  0.00  0.00    +0.000 OA
ATOM      3  N   UNL     1       7.694  -4.383  24.580  0.00  0.00    +0.000 N 
ATOM      4  C   UNL     1       8.906  -3.803  25.147  0.00  0.00    +0.000 C 
ATOM      5  C   UNL     1       9.575  -2.941  24.092  0.00  0.00    +0.000 C 
ATOM      6  N   UNL     1       8.660  -2.265  23.283  0.00  0.00    +0.000 NA
ATOM      7  C   UNL     1       7.801  -3.071  22.540  0.00  0.00    +0.000 C 
ATOM      8  C   UNL     1       7.571  -4.443  23.132  0.00  0.00    +0.000 C 
ENDROOT
BRANCH   6   9
ATOM      9  S   UNL     1       7.884  -1.056  24.071  0.00  0.00    +0.000 S 
ATOM     10  O   UNL     1       6.461  -1.221  23.871  0.00  0.00    +0.000 OA
ATOM     11  O   UNL     1       8.301  -1.061  25.454  0.00  0.00    +0.000 OA
BRANCH   9  12
ATOM     12  C   UNL     1       8.366   0.493  23.358  0.00  0.00    +0.000 C 
ATOM     13  C   UNL     1       9.287   0.252  22.153  0.00  0.00    +0.000 C 
ATOM     14  C   UNL     1      10.110   1.623  22.140  0.00  0.00    +0.000 C 
ATOM     15  C   UNL     1      10.396   2.136  23.443  0.00  0.00    +0.000 C 
ATOM     16 CL   UNL     1      10.208   3.835  23.550  0.00  0.00    +0.000 Cl
ATOM     17  S   UNL     1       9.255   1.394  24.395  0.00  0.00    +0.000 S 
ENDBRANCH   9  12
ENDBRANCH   6   9
BRANCH   1  19
ATOM     18 CL   UNL     1       4.280  -5.484  24.402  0.00  0.00    +0.000 Cl
ATOM     19  C   UNL     1       5.813  -5.740  25.280  0.00  0.00    +0.000 C 
ENDBRANCH   1  19
TORSDOF 3
ENDMDL
MODEL 9
REMARK VINA RESULT:      -5.4      3.318      6.879
REMARK  Name = 
REMARK  3 active torsions:
REMARK  status: ('A' for Active; 'I' for Inactive)
REMARK    1  A    between atoms: C_2  and  C_3
REMARK    2  A    between atoms: N_8  and  S_11
REMARK    3  A    between atoms: S_11  and  C_14
REMARK                            x       y       z     vdW  Elec       q    Type
REMARK                         _______ _______ _______ _____ _____    ______ ____
ROOT
ATOM      1  C   UNL     1       6.802   2.608  22.217  0.00  0.00    +0.000 C 
ATOM      2  O   UNL     1       6.324   2.056  21.245  0.00  0.00    +0.000 OA
ATOM      3  N   UNL     1       8.077   2.355  22.594  0.00  0.00    +0.000 N 
ATOM      4  C   UNL     1       9.004   1.795  21.615  0.00  0.00    +0.000 C 
ATOM      5  C   UNL     1       9.831   0.715  22.289  0.00  0.00    +0.000 C 
ATOM      6  N   UNL     1       9.102  -0.023  23.223  0.00  0.00    +0.000 NA
ATOM      7  C   UNL     1       8.590   0.703  24.297  0.00  0.00    +0.000 C 
ATOM      8  C   UNL     1       8.372   2.170  24.006  0.00  0.00    +0.000 C 
ENDROOT
BRANCH   6   9
ATOM      9  S   UNL     1       7.997  -1.014  22.532  0.00  0.00    +0.000 S 
ATOM     10  O   UNL     1       6.718  -0.786  23.170  0.00  0.00    +0.000 OA
ATOM     11  O   UNL     1       8.005  -0.794  21.105  0.00  0.00    +0.000 OA
BRANCH   9  12
ATOM     12  C   UNL     1       8.471  -2.696  22.831  0.00  0.00    +0.000 C 
ATOM     13  C   UNL     1       7.349  -3.644  22.383  0.00  0.00    +0.000 C 
ATOM     14  C   UNL     1       7.638  -4.899  23.330  0.00  0.00    +0.000 C 
ATOM     15  C   UNL     1       8.090  -4.543  24.639  0.00  0.00    +0.000 C 
ATOM     16 CL   UNL     1       9.349  -5.552  25.211  0.00  0.00    +0.000 Cl
ATOM     17  S   UNL     1       8.672  -3.002  24.425  0.00  0.00    +0.000 S 
ENDBRANCH   9  12
ENDBRANCH   6   9
BRANCH   1  19
ATOM     18 CL   UNL     1       7.346   5.243  22.118  0.00  0.00    +0.000 Cl
ATOM     19  C   UNL     1       6.255   3.949  22.686  0.00  0.00    +0.000 C 
ENDBRANCH   1  19
TORSDOF 3
ENDMDL
