MODEL 1
REMARK VINA RESULT:      -6.0      0.000      0.000
REMARK  Name = 
REMARK  1 active torsions:
REMARK  status: ('A' for Active; 'I' for Inactive)
REMARK    1  A    between atoms: N_10  and  C_11
REMARK                            x       y       z     vdW  Elec       q    Type
REMARK                         _______ _______ _______ _____ _____    ______ ____
ROOT
ATOM      1  C   UNL     1      10.424   1.909  22.812  0.00  0.00    +0.000 C 
ATOM      2  N   UNL     1      10.319   1.825  24.230  0.00  0.00    +0.000 NA
ATOM      3  C   UNL     1       8.961   1.971  24.628  0.00  0.00    +0.000 C 
ATOM      4  C   UNL     1       8.067   1.005  23.867  0.00  0.00    +0.000 C 
ATOM      5  N   UNL     1       8.880  -0.128  23.424  0.00  0.00    +0.000 N 
ATOM      6  C   UNL     1       9.968  -0.586  24.258  0.00  0.00    +0.000 C 
ATOM      7  C   UNL     1      10.835   0.581  24.685  0.00  0.00    +0.000 C 
ATOM      8  C   UNL     1       8.893  -0.390  22.091  0.00  0.00    +0.000 C 
ATOM      9  O   UNL     1       9.912  -0.424  21.467  0.00  0.00    +0.000 OA
ATOM     10  N   UNL     1       7.668  -0.248  21.609  0.00  0.00    +0.000 NA
ENDROOT
BRANCH  10  11
ATOM     11  C   UNL     1       7.549   0.708  20.679  0.00  0.00    +0.000 A 
ATOM     12  C   UNL     1       7.623  -0.022  19.202  0.00  0.00    +0.000 A 
ATOM     13  C   UNL     1       6.399   0.348  18.422  0.00  0.00    +0.000 A 
ATOM     14  C   UNL     1       5.209   1.196  18.576  0.00  0.00    +0.000 A 
ATOM     15  C   UNL     1       5.137   1.880  20.000  0.00  0.00    +0.000 A 
ATOM     16  C   UNL     1       6.378   1.588  20.747  0.00  0.00    +0.000 A 
ENDBRANCH  10  11
TORSDOF 1
ENDMDL
MODEL 2
REMARK VINA RESULT:      -5.8      4.070      5.711
REMARK  Name = 
REMARK  1 active torsions:
REMARK  status: ('A' for Active; 'I' for Inactive)
REMARK    1  A    between atoms: N_10  and  C_11
REMARK                            x       y       z     vdW  Elec       q    Type
REMARK                         _______ _______ _______ _____ _____    ______ ____
ROOT
ATOM      1  C   UNL     1       7.024  -5.255  21.737  0.00  0.00    +0.000 C 
ATOM      2  N   UNL     1       6.538  -5.893  22.915  0.00  0.00    +0.000 NA
ATOM      3  C   UNL     1       7.049  -5.241  24.071  0.00  0.00    +0.000 C 
ATOM      4  C   UNL     1       6.789  -3.744  24.007  0.00  0.00    +0.000 C 
ATOM      5  N   UNL     1       5.638  -3.511  23.134  0.00  0.00    +0.000 N 
ATOM      6  C   UNL     1       4.565  -4.478  23.105  0.00  0.00    +0.000 C 
ATOM      7  C   UNL     1       5.117  -5.878  22.927  0.00  0.00    +0.000 C 
ATOM      8  C   UNL     1       5.831  -2.683  22.073  0.00  0.00    +0.000 C 
ATOM      9  O   UNL     1       5.617  -3.037  20.952  0.00  0.00    +0.000 OA
ATOM     10  N   UNL     1       6.570  -1.653  22.456  0.00  0.00    +0.000 NA
ENDROOT
BRANCH  10  11
ATOM     11  C   UNL     1       7.742  -1.549  21.818  0.00  0.00    +0.000 A 
ATOM     12  C   UNL     1       7.635  -0.271  20.781  0.00  0.00    +0.000 A 
ATOM     13  C   UNL     1       8.753   0.680  21.074  0.00  0.00    +0.000 A 
ATOM     14  C   UNL     1       9.918   0.771  21.964  0.00  0.00    +0.000 A 
ATOM     15  C   UNL     1      10.007  -0.449  22.967  0.00  0.00    +0.000 A 
ATOM     16  C   UNL     1       8.957  -1.434  22.633  0.00  0.00    +0.000 A 
ENDBRANCH  10  11
TORSDOF 1
ENDMDL
MODEL 3
REMARK VINA RESULT:      -5.8      1.504      2.506
REMARK  Name = 
REMARK  1 active torsions:
REMARK  status: ('A' for Active; 'I' for Inactive)
REMARK    1  A    between atoms: N_10  and  C_11
REMARK                            x       y       z     vdW  Elec       q    Type
REMARK                         _______ _______ _______ _____ _____    ______ ____
ROOT
ATOM      1  C   UNL     1       8.435  -0.669  24.207  0.00  0.00    +0.000 C 
ATOM      2  N   UNL     1       9.837  -0.894  24.327  0.00  0.00    +0.000 NA
ATOM      3  C   UNL     1      10.400  -1.162  23.048  0.00  0.00    +0.000 C 
ATOM      4  C   UNL     1      10.013  -0.081  22.050  0.00  0.00    +0.000 C 
ATOM      5  N   UNL     1       9.705   1.144  22.789  0.00  0.00    +0.000 N 
ATOM      6  C   UNL     1      10.439   1.443  23.998  0.00  0.00    +0.000 C 
ATOM      7  C   UNL     1      10.464   0.238  24.915  0.00  0.00    +0.000 C 
ATOM      8  C   UNL     1       8.475   1.685  22.594  0.00  0.00    +0.000 C 
ATOM      9  O   UNL     1       7.722   1.882  23.502  0.00  0.00    +0.000 OA
ATOM     10  N   UNL     1       8.169   1.615  21.307  0.00  0.00    +0.000 NA
ENDROOT
BRANCH  10  11
ATOM     11  C   UNL     1       7.084   0.877  21.039  0.00  0.00    +0.000 A 
ATOM     12  C   UNL     1       5.839   1.914  20.732  0.00  0.00    +0.000 A 
ATOM     13  C   UNL     1       5.264   1.590  19.389  0.00  0.00    +0.000 A 
ATOM     14  C   UNL     1       5.455   0.604  18.317  0.00  0.00    +0.000 A 
ATOM     15  C   UNL     1       6.661  -0.378  18.610  0.00  0.00    +0.000 A 
ATOM     16  C   UNL     1       7.182  -0.121  19.968  0.00  0.00    +0.000 A 
ENDBRANCH  10  11
TORSDOF 1
ENDMDL
MODEL 4
REMARK VINA RESULT:      -5.7      3.341      4.422
REMARK  Name = 
REMARK  1 active torsions:
REMARK  status: ('A' for Active; 'I' for Inactive)
REMARK    1  A    between atoms: N_10  and  C_11
REMARK                            x       y       z     vdW  Elec       q    Type
REMARK                         _______ _______ _______ _____ _____    ______ ____
ROOT
ATOM      1  C   UNL     1       7.373  -2.678  25.866  0.00  0.00    +0.000 C 
ATOM      2  N   UNL     1       7.261  -4.083  26.075  0.00  0.00    +0.000 NA
ATOM      3  C   UNL     1       6.766  -4.713  24.899  0.00  0.00    +0.000 C 
ATOM      4  C   UNL     1       7.591  -4.317  23.685  0.00  0.00    +0.000 C 
ATOM      5  N   UNL     1       8.922  -3.916  24.140  0.00  0.00    +0.000 N 
ATOM      6  C   UNL     1       9.509  -4.580  25.282  0.00  0.00    +0.000 C 
ATOM      7  C   UNL     1       8.525  -4.626  26.432  0.00  0.00    +0.000 C 
ATOM      8  C   UNL     1       9.339  -2.669  23.795  0.00  0.00    +0.000 C 
ATOM      9  O   UNL     1       9.676  -1.869  24.617  0.00  0.00    +0.000 OA
ATOM     10  N   UNL     1       8.984  -2.424  22.543  0.00  0.00    +0.000 NA
ENDROOT
BRANCH  10  11
ATOM     11  C   UNL     1       8.145  -1.390  22.401  0.00  0.00    +0.000 A 
ATOM     12  C   UNL     1       8.982  -0.164  21.685  0.00  0.00    +0.000 A 
ATOM     13  C   UNL     1       8.252   0.257  20.447  0.00  0.00    +0.000 A 
ATOM     14  C   UNL     1       7.008  -0.069  19.737  0.00  0.00    +0.000 A 
ATOM     15  C   UNL     1       6.218  -1.256  20.420  0.00  0.00    +0.000 A 
ATOM     16  C   UNL     1       6.886  -1.624  21.686  0.00  0.00    +0.000 A 
ENDBRANCH  10  11
TORSDOF 1
ENDMDL
MODEL 5
REMARK VINA RESULT:      -5.7      3.236      5.407
REMARK  Name = 
REMARK  1 active torsions:
REMARK  status: ('A' for Active; 'I' for Inactive)
REMARK    1  A    between atoms: N_10  and  C_11
REMARK                            x       y       z     vdW  Elec       q    Type
REMARK                         _______ _______ _______ _____ _____    ______ ____
ROOT
ATOM      1  C   UNL     1       6.129  -2.695  24.500  0.00  0.00    +0.000 C 
ATOM      2  N   UNL     1       5.931  -3.852  23.692  0.00  0.00    +0.000 NA
ATOM      3  C   UNL     1       6.465  -3.637  22.392  0.00  0.00    +0.000 C 
ATOM      4  C   UNL     1       7.906  -3.159  22.471  0.00  0.00    +0.000 C 
ATOM      5  N   UNL     1       8.475  -3.609  23.742  0.00  0.00    +0.000 N 
ATOM      6  C   UNL     1       8.057  -4.878  24.294  0.00  0.00    +0.000 C 
ATOM      7  C   UNL     1       6.545  -4.981  24.299  0.00  0.00    +0.000 C 
ATOM      8  C   UNL     1       8.983  -2.650  24.561  0.00  0.00    +0.000 C 
ATOM      9  O   UNL     1       8.595  -2.511  25.683  0.00  0.00    +0.000 OA
ATOM     10  N   UNL     1       9.649  -1.767  23.833  0.00  0.00    +0.000 NA
ENDROOT
BRANCH  10  11
ATOM     11  C   UNL     1       9.157  -0.523  23.890  0.00  0.00    +0.000 A 
ATOM     12  C   UNL     1      10.184   0.378  24.812  0.00  0.00    +0.000 A 
ATOM     13  C   UNL     1      10.620   1.571  24.019  0.00  0.00    +0.000 A 
ATOM     14  C   UNL     1      10.359   2.176  22.706  0.00  0.00    +0.000 A 
ATOM     15  C   UNL     1       9.385   1.299  21.820  0.00  0.00    +0.000 A 
ATOM     16  C   UNL     1       8.885   0.164  22.622  0.00  0.00    +0.000 A 
ENDBRANCH  10  11
TORSDOF 1
ENDMDL
MODEL 6
REMARK VINA RESULT:      -5.6      4.057      5.891
REMARK  Name = 
REMARK  1 active torsions:
REMARK  status: ('A' for Active; 'I' for Inactive)
REMARK    1  A    between atoms: N_10  and  C_11
REMARK                            x       y       z     vdW  Elec       q    Type
REMARK                         _______ _______ _______ _____ _____    ______ ____
ROOT
ATOM      1  C   UNL     1       8.628  -4.522  26.665  0.00  0.00    +0.000 C 
ATOM      2  N   UNL     1       7.291  -4.585  27.153  0.00  0.00    +0.000 NA
ATOM      3  C   UNL     1       6.645  -3.330  26.974  0.00  0.00    +0.000 C 
ATOM      4  C   UNL     1       6.773  -2.858  25.534  0.00  0.00    +0.000 C 
ATOM      5  N   UNL     1       6.978  -4.027  24.679  0.00  0.00    +0.000 N 
ATOM      6  C   UNL     1       6.336  -5.276  25.022  0.00  0.00    +0.000 C 
ATOM      7  C   UNL     1       6.574  -5.611  26.480  0.00  0.00    +0.000 C 
ATOM      8  C   UNL     1       8.094  -4.032  23.903  0.00  0.00    +0.000 C 
ATOM      9  O   UNL     1       8.899  -4.913  23.965  0.00  0.00    +0.000 OA
ATOM     10  N   UNL     1       8.275  -2.822  23.396  0.00  0.00    +0.000 NA
ENDROOT
BRANCH  10  11
ATOM     11  C   UNL     1       9.420  -2.235  23.766  0.00  0.00    +0.000 A 
ATOM     12  C   UNL     1      10.089  -1.555  22.421  0.00  0.00    +0.000 A 
ATOM     13  C   UNL     1      10.326  -0.101  22.686  0.00  0.00    +0.000 A 
ATOM     14  C   UNL     1      10.185   0.855  23.792  0.00  0.00    +0.000 A 
ATOM     15  C   UNL     1       9.528   0.200  25.074  0.00  0.00    +0.000 A 
ATOM     16  C   UNL     1       9.365  -1.251  24.853  0.00  0.00    +0.000 A 
ENDBRANCH  10  11
TORSDOF 1
ENDMDL
MODEL 7
REMARK VINA RESULT:      -5.6      2.613      4.083
REMARK  Name = 
REMARK  1 active torsions:
REMARK  status: ('A' for Active; 'I' for Inactive)
REMARK    1  A    between atoms: N_10  and  C_11
REMARK                            x       y       z     vdW  Elec       q    Type
REMARK                         _______ _______ _______ _____ _____    ______ ____
ROOT
ATOM      1  C   UNL     1       8.502   1.210  24.506  0.00  0.00    +0.000 C 
ATOM      2  N   UNL     1       9.856   1.653  24.515  0.00  0.00    +0.000 NA
ATOM      3  C   UNL     1      10.736   0.535  24.507  0.00  0.00    +0.000 C 
ATOM      4  C   UNL     1      10.388  -0.418  23.375  0.00  0.00    +0.000 C 
ATOM      5  N   UNL     1       9.692   0.335  22.331  0.00  0.00    +0.000 N 
ATOM      6  C   UNL     1      10.060   1.712  22.089  0.00  0.00    +0.000 C 
ATOM      7  C   UNL     1      10.105   2.486  23.391  0.00  0.00    +0.000 C 
ATOM      8  C   UNL     1       8.458  -0.107  21.974  0.00  0.00    +0.000 C 
ATOM      9  O   UNL     1       7.496   0.599  22.030  0.00  0.00    +0.000 OA
ATOM     10  N   UNL     1       8.473  -1.430  21.912  0.00  0.00    +0.000 NA
ENDROOT
BRANCH  10  11
ATOM     11  C   UNL     1       7.639  -2.031  22.771  0.00  0.00    +0.000 A 
ATOM     12  C   UNL     1       6.329  -2.548  21.914  0.00  0.00    +0.000 A 
ATOM     13  C   UNL     1       6.154  -4.017  22.142  0.00  0.00    +0.000 A 
ATOM     14  C   UNL     1       6.772  -5.089  22.933  0.00  0.00    +0.000 A 
ATOM     15  C   UNL     1       8.037  -4.591  23.741  0.00  0.00    +0.000 A 
ATOM     16  C   UNL     1       8.170  -3.127  23.588  0.00  0.00    +0.000 A 
ENDBRANCH  10  11
TORSDOF 1
ENDMDL
MODEL 8
REMARK VINA RESULT:      -5.5      3.072      4.378
REMARK  Name = 
REMARK  1 active torsions:
REMARK  status: ('A' for Active; 'I' for Inactive)
REMARK    1  A    between atoms: N_10  and  C_11
REMARK                            x       y       z     vdW  Elec       q    Type
REMARK                         _______ _______ _______ _____ _____    ______ ____
ROOT
ATOM      1  C   UNL     1       8.903  -0.247  20.928  0.00  0.00    +0.000 C 
ATOM      2  N   UNL     1       8.751   1.072  21.445  0.00  0.00    +0.000 NA
ATOM      3  C   UNL     1       7.688   1.106  22.391  0.00  0.00    +0.000 C 
ATOM      4  C   UNL     1       7.870   0.028  23.448  0.00  0.00    +0.000 C 
ATOM      5  N   UNL     1       9.292  -0.308  23.528  0.00  0.00    +0.000 N 
ATOM      6  C   UNL     1      10.276   0.728  23.313  0.00  0.00    +0.000 C 
ATOM      7  C   UNL     1       9.963   1.503  22.049  0.00  0.00    +0.000 C 
ATOM      8  C   UNL     1       9.627  -1.610  23.330  0.00  0.00    +0.000 C 
ATOM      9  O   UNL     1      10.401  -1.938  22.481  0.00  0.00    +0.000 OA
ATOM     10  N   UNL     1       8.746  -2.383  23.947  0.00  0.00    +0.000 NA
ENDROOT
BRANCH  10  11
ATOM     11  C   UNL     1       8.060  -3.195  23.133  0.00  0.00    +0.000 A 
ATOM     12  C   UNL     1       8.099  -4.708  23.788  0.00  0.00    +0.000 A 
ATOM     13  C   UNL     1       6.694  -5.195  23.955  0.00  0.00    +0.000 A 
ATOM     14  C   UNL     1       5.328  -4.741  23.660  0.00  0.00    +0.000 A 
ATOM     15  C   UNL     1       5.296  -3.283  23.047  0.00  0.00    +0.000 A 
ATOM     16  C   UNL     1       6.679  -2.826  22.801  0.00  0.00    +0.000 A 
ENDBRANCH  10  11
TORSDOF 1
ENDMDL
MODEL 9
REMARK VINA RESULT:      -5.5      3.328      5.622
REMARK  Name = 
REMARK  1 active torsions:
REMARK  status: ('A' for Active; 'I' for Inactive)
REMARK    1  A    between atoms: N_10  and  C_11
REMARK                            x       y       z     vdW  Elec       q    Type
REMARK                         _______ _______ _______ _____ _____    ______ ____
ROOT
ATOM      1  C   UNL     1       8.231   0.476  23.669  0.00  0.00    +0.000 C 
ATOM      2  N   UNL     1       9.445   0.846  23.021  0.00  0.00    +0.000 NA
ATOM      3  C   UNL     1      10.484  -0.058  23.375  0.00  0.00    +0.000 C 
ATOM      4  C   UNL     1      10.052  -1.497  23.140  0.00  0.00    +0.000 C 
ATOM      5  N   UNL     1       9.001  -1.505  22.122  0.00  0.00    +0.000 N 
ATOM      6  C   UNL     1       9.044  -0.533  21.053  0.00  0.00    +0.000 C 
ATOM      7  C   UNL     1       9.261   0.859  21.611  0.00  0.00    +0.000 C 
ATOM      8  C   UNL     1       7.818  -2.079  22.465  0.00  0.00    +0.000 C 
ATOM      9  O   UNL     1       6.786  -1.479  22.403  0.00  0.00    +0.000 OA
ATOM     10  N   UNL     1       8.057  -3.185  23.154  0.00  0.00    +0.000 NA
ENDROOT
BRANCH  10  11
ATOM     11  C   UNL     1       7.577  -3.169  24.404  0.00  0.00    +0.000 A 
ATOM     12  C   UNL     1       6.382  -4.301  24.493  0.00  0.00    +0.000 A 
ATOM     13  C   UNL     1       6.700  -5.250  25.606  0.00  0.00    +0.000 A 
ATOM     14  C   UNL     1       7.722  -5.423  26.647  0.00  0.00    +0.000 A 
ATOM     15  C   UNL     1       8.874  -4.344  26.547  0.00  0.00    +0.000 A 
ATOM     16  C   UNL     1       8.528  -3.355  25.505  0.00  0.00    +0.000 A 
ENDBRANCH  10  11
TORSDOF 1
ENDMDL
