MODEL 1
REMARK VINA RESULT:      -5.9      0.000      0.000
REMARK  Name = 
REMARK  3 active torsions:
REMARK  status: ('A' for Active; 'I' for Inactive)
REMARK    1  A    between atoms: C_2  and  C_3
REMARK    2  A    between atoms: N_8  and  C_9
REMARK    3  A    between atoms: C_9  and  C_10
REMARK                            x       y       z     vdW  Elec       q    Type
REMARK                         _______ _______ _______ _____ _____    ______ ____
ROOT
ATOM      1  C   UNL     1       7.865  -4.808  24.130  0.00  0.00    +0.000 C 
ATOM      2  O   UNL     1       8.912  -5.415  24.184  0.00  0.00    +0.000 OA
ATOM      3  N   UNL     1       7.738  -3.586  24.680  0.00  0.00    +0.000 N 
ATOM      4  C   UNL     1       8.530  -3.237  25.846  0.00  0.00    +0.000 C 
ATOM      5  C   UNL     1       8.595  -1.722  25.969  0.00  0.00    +0.000 C 
ATOM      6  N   UNL     1       8.598  -1.108  24.693  0.00  0.00    +0.000 NA
ATOM      7  C   UNL     1       7.382  -1.268  24.023  0.00  0.00    +0.000 C 
ATOM      8  C   UNL     1       6.778  -2.642  24.157  0.00  0.00    +0.000 C 
ENDROOT
BRANCH   1  10
ATOM      9 CL   UNL     1       7.054  -6.118  21.914  0.00  0.00    +0.000 Cl
ATOM     10  C   UNL     1       6.632  -5.392  23.486  0.00  0.00    +0.000 C 
ENDBRANCH   1  10
BRANCH   6  11
ATOM     11  C   UNL     1       9.718  -1.490  23.933  0.00  0.00    +0.000 C 
BRANCH  11  12
ATOM     12  C   UNL     1      10.370  -0.380  23.191  0.00  0.00    +0.000 A 
ATOM     13  C   UNL     1       9.872   0.220  21.994  0.00  0.00    +0.000 A 
ATOM     14  C   UNL     1       9.963   1.723  22.000  0.00  0.00    +0.000 A 
ATOM     15  C   UNL     1       9.925   2.214  23.355  0.00  0.00    +0.000 A 
ATOM     16 CL   UNL     1      10.752   3.705  23.491  0.00  0.00    +0.000 Cl
ATOM     17  S   UNL     1      10.770   0.957  24.312  0.00  0.00    +0.000 S 
ENDBRANCH  11  12
ENDBRANCH   6  11
TORSDOF 3
ENDMDL
MODEL 2
REMARK VINA RESULT:      -5.6      3.803      6.248
REMARK  Name = 
REMARK  3 active torsions:
REMARK  status: ('A' for Active; 'I' for Inactive)
REMARK    1  A    between atoms: C_2  and  C_3
REMARK    2  A    between atoms: N_8  and  C_9
REMARK    3  A    between atoms: C_9  and  C_10
REMARK                            x       y       z     vdW  Elec       q    Type
REMARK                         _______ _______ _______ _____ _____    ______ ____
ROOT
ATOM      1  C   UNL     1       6.858  -0.517  20.167  0.00  0.00    +0.000 C 
ATOM      2  O   UNL     1       5.748  -1.000  20.099  0.00  0.00    +0.000 OA
ATOM      3  N   UNL     1       7.574  -0.572  21.305  0.00  0.00    +0.000 N 
ATOM      4  C   UNL     1       6.888  -0.584  22.585  0.00  0.00    +0.000 C 
ATOM      5  C   UNL     1       7.826  -1.137  23.647  0.00  0.00    +0.000 C 
ATOM      6  N   UNL     1       8.683  -2.126  23.104  0.00  0.00    +0.000 NA
ATOM      7  C   UNL     1       9.599  -1.592  22.194  0.00  0.00    +0.000 C 
ATOM      8  C   UNL     1       9.018  -0.557  21.266  0.00  0.00    +0.000 C 
ENDROOT
BRANCH   1  10
ATOM      9 CL   UNL     1       6.226   0.943  17.986  0.00  0.00    +0.000 Cl
ATOM     10  C   UNL     1       7.490   0.206  19.003  0.00  0.00    +0.000 C 
ENDBRANCH   1  10
BRANCH   6  11
ATOM     11  C   UNL     1       7.961  -3.224  22.604  0.00  0.00    +0.000 C 
BRANCH  11  12
ATOM     12  C   UNL     1       7.986  -4.429  23.473  0.00  0.00    +0.000 A 
ATOM     13  C   UNL     1       8.684  -4.539  24.714  0.00  0.00    +0.000 A 
ATOM     14  C   UNL     1       7.874  -5.206  25.795  0.00  0.00    +0.000 A 
ATOM     15  C   UNL     1       6.468  -5.009  25.549  0.00  0.00    +0.000 A 
ATOM     16 CL   UNL     1       5.544  -6.288  26.213  0.00  0.00    +0.000 Cl
ATOM     17  S   UNL     1       6.319  -5.011  23.764  0.00  0.00    +0.000 S 
ENDBRANCH  11  12
ENDBRANCH   6  11
TORSDOF 3
ENDMDL
MODEL 3
REMARK VINA RESULT:      -5.4      2.396      2.709
REMARK  Name = 
REMARK  3 active torsions:
REMARK  status: ('A' for Active; 'I' for Inactive)
REMARK    1  A    between atoms: C_2  and  C_3
REMARK    2  A    between atoms: N_8  and  C_9
REMARK    3  A    between atoms: C_9  and  C_10
REMARK                            x       y       z     vdW  Elec       q    Type
REMARK                         _______ _______ _______ _____ _____    ______ ____
ROOT
ATOM      1  C   UNL     1       6.491  -5.094  23.286  0.00  0.00    +0.000 C 
ATOM      2  O   UNL     1       6.985  -5.555  22.280  0.00  0.00    +0.000 OA
ATOM      3  N   UNL     1       7.257  -4.625  24.288  0.00  0.00    +0.000 N 
ATOM      4  C   UNL     1       8.569  -5.206  24.522  0.00  0.00    +0.000 C 
ATOM      5  C   UNL     1       9.410  -4.227  25.327  0.00  0.00    +0.000 C 
ATOM      6  N   UNL     1       9.093  -2.888  24.992  0.00  0.00    +0.000 NA
ATOM      7  C   UNL     1       7.805  -2.529  25.401  0.00  0.00    +0.000 C 
ATOM      8  C   UNL     1       6.763  -3.593  25.170  0.00  0.00    +0.000 C 
ENDROOT
BRANCH   1  10
ATOM      9 CL   UNL     1       4.411  -6.657  24.005  0.00  0.00    +0.000 Cl
ATOM     10  C   UNL     1       4.998  -5.052  23.500  0.00  0.00    +0.000 C 
ENDBRANCH   1  10
BRANCH   6  11
ATOM     11  C   UNL     1       9.354  -2.612  23.639  0.00  0.00    +0.000 C 
BRANCH  11  12
ATOM     12  C   UNL     1       8.937  -1.257  23.191  0.00  0.00    +0.000 A 
ATOM     13  C   UNL     1       9.824  -0.193  22.842  0.00  0.00    +0.000 A 
ATOM     14  C   UNL     1       9.410   0.539  21.593  0.00  0.00    +0.000 A 
ATOM     15  C   UNL     1       8.648  -0.336  20.738  0.00  0.00    +0.000 A 
ATOM     16 CL   UNL     1       7.556   0.554  19.766  0.00  0.00    +0.000 Cl
ATOM     17  S   UNL     1       7.739  -1.389  21.868  0.00  0.00    +0.000 S 
ENDBRANCH  11  12
ENDBRANCH   6  11
TORSDOF 3
ENDMDL
MODEL 4
REMARK VINA RESULT:      -5.4      3.351      4.252
REMARK  Name = 
REMARK  3 active torsions:
REMARK  status: ('A' for Active; 'I' for Inactive)
REMARK    1  A    between atoms: C_2  and  C_3
REMARK    2  A    between atoms: N_8  and  C_9
REMARK    3  A    between atoms: C_9  and  C_10
REMARK                            x       y       z     vdW  Elec       q    Type
REMARK                         _______ _______ _______ _____ _____    ______ ____
ROOT
ATOM      1  C   UNL     1       9.558  -1.971  23.244  0.00  0.00    +0.000 C 
ATOM      2  O   UNL     1      10.320  -2.023  22.303  0.00  0.00    +0.000 OA
ATOM      3  N   UNL     1       9.364  -0.825  23.922  0.00  0.00    +0.000 N 
ATOM      4  C   UNL     1      10.442   0.145  24.018  0.00  0.00    +0.000 C 
ATOM      5  C   UNL     1       9.859   1.505  24.368  0.00  0.00    +0.000 C 
ATOM      6  N   UNL     1       8.578   1.675  23.787  0.00  0.00    +0.000 NA
ATOM      7  C   UNL     1       7.623   0.824  24.349  0.00  0.00    +0.000 C 
ATOM      8  C   UNL     1       8.115  -0.577  24.604  0.00  0.00    +0.000 C 
ENDROOT
BRANCH   1  10
ATOM      9 CL   UNL     1       9.789  -4.040  24.963  0.00  0.00    +0.000 Cl
ATOM     10  C   UNL     1       8.813  -3.185  23.740  0.00  0.00    +0.000 C 
ENDBRANCH   1  10
BRANCH   6  11
ATOM     11  C   UNL     1       8.631   1.618  22.383  0.00  0.00    +0.000 C 
BRANCH  11  12
ATOM     12  C   UNL     1       7.367   1.181  21.734  0.00  0.00    +0.000 A 
ATOM     13  C   UNL     1       6.432   2.042  21.083  0.00  0.00    +0.000 A 
ATOM     14  C   UNL     1       5.931   1.494  19.773  0.00  0.00    +0.000 A 
ATOM     15  C   UNL     1       6.915   0.610  19.200  0.00  0.00    +0.000 A 
ATOM     16 CL   UNL     1       6.176  -0.572  18.208  0.00  0.00    +0.000 Cl
ATOM     17  S   UNL     1       7.691  -0.175  20.611  0.00  0.00    +0.000 S 
ENDBRANCH  11  12
ENDBRANCH   6  11
TORSDOF 3
ENDMDL
MODEL 5
REMARK VINA RESULT:      -5.3      1.831      2.424
REMARK  Name = 
REMARK  3 active torsions:
REMARK  status: ('A' for Active; 'I' for Inactive)
REMARK    1  A    between atoms: C_2  and  C_3
REMARK    2  A    between atoms: N_8  and  C_9
REMARK    3  A    between atoms: C_9  and  C_10
REMARK                            x       y       z     vdW  Elec       q    Type
REMARK                         _______ _______ _______ _____ _____    ______ ____
ROOT
ATOM      1  C   UNL     1       6.977  -5.232  23.337  0.00  0.00    +0.000 C 
ATOM      2  O   UNL     1       8.057  -5.619  22.946  0.00  0.00    +0.000 OA
ATOM      3  N   UNL     1       6.811  -4.779  24.594  0.00  0.00    +0.000 N 
ATOM      4  C   UNL     1       7.638  -5.309  25.664  0.00  0.00    +0.000 C 
ATOM      5  C   UNL     1       7.627  -4.335  26.831  0.00  0.00    +0.000 C 
ATOM      6  N   UNL     1       7.537  -2.996  26.376  0.00  0.00    +0.000 NA
ATOM      7  C   UNL     1       6.301  -2.719  25.787  0.00  0.00    +0.000 C 
ATOM      8  C   UNL     1       5.778  -3.816  24.897  0.00  0.00    +0.000 C 
ENDROOT
BRANCH   1  10
ATOM      9 CL   UNL     1       6.198  -5.719  20.799  0.00  0.00    +0.000 Cl
ATOM     10  C   UNL     1       5.747  -5.269  22.464  0.00  0.00    +0.000 C 
ENDBRANCH   1  10
BRANCH   6  11
ATOM     11  C   UNL     1       8.638  -2.642  25.576  0.00  0.00    +0.000 C 
BRANCH  11  12
ATOM     12  C   UNL     1       8.624  -1.236  25.093  0.00  0.00    +0.000 A 
ATOM     13  C   UNL     1       9.483  -0.194  25.558  0.00  0.00    +0.000 A 
ATOM     14  C   UNL     1      10.042   0.655  24.448  0.00  0.00    +0.000 A 
ATOM     15  C   UNL     1      10.107  -0.109  23.227  0.00  0.00    +0.000 A 
ATOM     16 CL   UNL     1       9.984   0.910  21.858  0.00  0.00    +0.000 Cl
ATOM     17  S   UNL     1       8.689  -1.201  23.305  0.00  0.00    +0.000 S 
ENDBRANCH  11  12
ENDBRANCH   6  11
TORSDOF 3
ENDMDL
MODEL 6
REMARK VINA RESULT:      -5.3      2.850      6.277
REMARK  Name = 
REMARK  3 active torsions:
REMARK  status: ('A' for Active; 'I' for Inactive)
REMARK    1  A    between atoms: C_2  and  C_3
REMARK    2  A    between atoms: N_8  and  C_9
REMARK    3  A    between atoms: C_9  and  C_10
REMARK                            x       y       z     vdW  Elec       q    Type
REMARK                         _______ _______ _______ _____ _____    ______ ____
ROOT
ATOM      1  C   UNL     1       9.420   1.858  23.949  0.00  0.00    +0.000 C 
ATOM      2  O   UNL     1       9.014   1.709  25.081  0.00  0.00    +0.000 OA
ATOM      3  N   UNL     1       9.739   0.803  23.178  0.00  0.00    +0.000 N 
ATOM      4  C   UNL     1      10.234  -0.416  23.796  0.00  0.00    +0.000 C 
ATOM      5  C   UNL     1      10.048  -1.575  22.830  0.00  0.00    +0.000 C 
ATOM      6  N   UNL     1       8.881  -1.403  22.046  0.00  0.00    +0.000 NA
ATOM      7  C   UNL     1       8.992  -0.331  21.157  0.00  0.00    +0.000 C 
ATOM      8  C   UNL     1       9.652   0.891  21.739  0.00  0.00    +0.000 C 
ENDROOT
BRANCH   1  10
ATOM      9 CL   UNL     1      11.364   3.645  23.389  0.00  0.00    +0.000 Cl
ATOM     10  C   UNL     1       9.632   3.225  23.347  0.00  0.00    +0.000 C 
ENDBRANCH   1  10
BRANCH   6  11
ATOM     11  C   UNL     1       7.721  -1.362  22.841  0.00  0.00    +0.000 C 
BRANCH  11  12
ATOM     12  C   UNL     1       7.196  -2.694  23.238  0.00  0.00    +0.000 A 
ATOM     13  C   UNL     1       7.527  -3.934  22.612  0.00  0.00    +0.000 A 
ATOM     14  C   UNL     1       7.800  -5.042  23.594  0.00  0.00    +0.000 A 
ATOM     15  C   UNL     1       8.270  -4.492  24.840  0.00  0.00    +0.000 A 
ATOM     16 CL   UNL     1       7.876  -5.517  26.152  0.00  0.00    +0.000 Cl
ATOM     17  S   UNL     1       7.399  -2.934  25.000  0.00  0.00    +0.000 S 
ENDBRANCH  11  12
ENDBRANCH   6  11
TORSDOF 3
ENDMDL
MODEL 7
REMARK VINA RESULT:      -5.2      3.811      6.024
REMARK  Name = 
REMARK  3 active torsions:
REMARK  status: ('A' for Active; 'I' for Inactive)
REMARK    1  A    between atoms: C_2  and  C_3
REMARK    2  A    between atoms: N_8  and  C_9
REMARK    3  A    between atoms: C_9  and  C_10
REMARK                            x       y       z     vdW  Elec       q    Type
REMARK                         _______ _______ _______ _____ _____    ______ ____
ROOT
ATOM      1  C   UNL     1       9.471   2.425  23.848  0.00  0.00    +0.000 C 
ATOM      2  O   UNL     1       8.463   3.070  24.038  0.00  0.00    +0.000 OA
ATOM      3  N   UNL     1       9.500   1.096  24.063  0.00  0.00    +0.000 N 
ATOM      4  C   UNL     1       8.645   0.515  25.084  0.00  0.00    +0.000 C 
ATOM      5  C   UNL     1       8.480  -0.972  24.807  0.00  0.00    +0.000 C 
ATOM      6  N   UNL     1       8.484  -1.234  23.415  0.00  0.00    +0.000 NA
ATOM      7  C   UNL     1       9.731  -0.993  22.833  0.00  0.00    +0.000 C 
ATOM      8  C   UNL     1      10.416   0.254  23.331  0.00  0.00    +0.000 C 
ENDROOT
BRANCH   1  10
ATOM      9 CL   UNL     1      10.701   4.823  23.698  0.00  0.00    +0.000 Cl
ATOM     10  C   UNL     1      10.761   3.066  23.401  0.00  0.00    +0.000 C 
ENDBRANCH   1  10
BRANCH   6  11
ATOM     11  C   UNL     1       7.419  -0.590  22.760  0.00  0.00    +0.000 C 
BRANCH  11  12
ATOM     12  C   UNL     1       7.316  -0.887  21.308  0.00  0.00    +0.000 A 
ATOM     13  C   UNL     1       6.280  -1.653  20.692  0.00  0.00    +0.000 A 
ATOM     14  C   UNL     1       5.765  -1.040  19.417  0.00  0.00    +0.000 A 
ATOM     15  C   UNL     1       5.954   0.389  19.445  0.00  0.00    +0.000 A 
ATOM     16 CL   UNL     1       6.122   1.017  17.862  0.00  0.00    +0.000 Cl
ATOM     17  S   UNL     1       7.478   0.622  20.359  0.00  0.00    +0.000 S 
ENDBRANCH  11  12
ENDBRANCH   6  11
TORSDOF 3
ENDMDL
MODEL 8
REMARK VINA RESULT:      -5.2      3.198      5.686
REMARK  Name = 
REMARK  3 active torsions:
REMARK  status: ('A' for Active; 'I' for Inactive)
REMARK    1  A    between atoms: C_2  and  C_3
REMARK    2  A    between atoms: N_8  and  C_9
REMARK    3  A    between atoms: C_9  and  C_10
REMARK                            x       y       z     vdW  Elec       q    Type
REMARK                         _______ _______ _______ _____ _____    ______ ____
ROOT
ATOM      1  C   UNL     1       7.476   0.798  22.068  0.00  0.00    +0.000 C 
ATOM      2  O   UNL     1       6.592   0.995  22.874  0.00  0.00    +0.000 OA
ATOM      3  N   UNL     1       8.745   0.588  22.462  0.00  0.00    +0.000 N 
ATOM      4  C   UNL     1       9.229   1.203  23.686  0.00  0.00    +0.000 C 
ATOM      5  C   UNL     1      10.459   0.451  24.169  0.00  0.00    +0.000 C 
ATOM      6  N   UNL     1      10.366  -0.929  23.861  0.00  0.00    +0.000 NA
ATOM      7  C   UNL     1      10.430  -1.170  22.486  0.00  0.00    +0.000 C 
ATOM      8  C   UNL     1       9.647  -0.193  21.648  0.00  0.00    +0.000 C 
ENDROOT
BRANCH   1  10
ATOM      9 CL   UNL     1       6.419  -0.696  20.084  0.00  0.00    +0.000 Cl
ATOM     10  C   UNL     1       7.223   0.815  20.581  0.00  0.00    +0.000 C 
ENDBRANCH   1  10
BRANCH   6  11
ATOM     11  C   UNL     1       9.262  -1.530  24.490  0.00  0.00    +0.000 C 
BRANCH  11  12
ATOM     12  C   UNL     1       9.010  -2.938  24.085  0.00  0.00    +0.000 A 
ATOM     13  C   UNL     1       9.309  -4.092  24.872  0.00  0.00    +0.000 A 
ATOM     14  C   UNL     1       8.207  -5.117  24.868  0.00  0.00    +0.000 A 
ATOM     15  C   UNL     1       6.938  -4.476  24.627  0.00  0.00    +0.000 A 
ATOM     16 CL   UNL     1       5.839  -5.551  23.875  0.00  0.00    +0.000 Cl
ATOM     17  S   UNL     1       7.322  -3.122  23.519  0.00  0.00    +0.000 S 
ENDBRANCH  11  12
ENDBRANCH   6  11
TORSDOF 3
ENDMDL
MODEL 9
REMARK VINA RESULT:      -5.2      3.020      3.722
REMARK  Name = 
REMARK  3 active torsions:
REMARK  status: ('A' for Active; 'I' for Inactive)
REMARK    1  A    between atoms: C_2  and  C_3
REMARK    2  A    between atoms: N_8  and  C_9
REMARK    3  A    between atoms: C_9  and  C_10
REMARK                            x       y       z     vdW  Elec       q    Type
REMARK                         _______ _______ _______ _____ _____    ______ ____
ROOT
ATOM      1  C   UNL     1       6.169  -4.887  26.749  0.00  0.00    +0.000 C 
ATOM      2  O   UNL     1       5.216  -4.144  26.661  0.00  0.00    +0.000 OA
ATOM      3  N   UNL     1       7.049  -5.015  25.739  0.00  0.00    +0.000 N 
ATOM      4  C   UNL     1       6.601  -4.837  24.369  0.00  0.00    +0.000 C 
ATOM      5  C   UNL     1       7.803  -4.536  23.487  0.00  0.00    +0.000 C 
ATOM      6  N   UNL     1       8.779  -3.790  24.193  0.00  0.00    +0.000 NA
ATOM      7  C   UNL     1       9.378  -4.532  25.214  0.00  0.00    +0.000 C 
ATOM      8  C   UNL     1       8.420  -5.387  26.002  0.00  0.00    +0.000 C 
ENDROOT
BRANCH   1  10
ATOM      9 CL   UNL     1       5.126  -6.968  28.116  0.00  0.00    +0.000 Cl
ATOM     10  C   UNL     1       6.410  -5.741  27.969  0.00  0.00    +0.000 C 
ENDBRANCH   1  10
BRANCH   6  11
ATOM     11  C   UNL     1       8.278  -2.546  24.615  0.00  0.00    +0.000 C 
BRANCH  11  12
ATOM     12  C   UNL     1       8.778  -1.381  23.838  0.00  0.00    +0.000 A 
ATOM     13  C   UNL     1       9.969  -1.363  23.051  0.00  0.00    +0.000 A 
ATOM     14  C   UNL     1       9.787  -0.698  21.712  0.00  0.00    +0.000 A 
ATOM     15  C   UNL     1       8.412  -0.805  21.292  0.00  0.00    +0.000 A 
ATOM     16 CL   UNL     1       7.981   0.494  20.265  0.00  0.00    +0.000 Cl
ATOM     17  S   UNL     1       7.469  -0.720  22.813  0.00  0.00    +0.000 S 
ENDBRANCH  11  12
ENDBRANCH   6  11
TORSDOF 3
ENDMDL
