MODEL 1
REMARK VINA RESULT:      -4.3      0.000      0.000
REMARK  Name = 
REMARK  3 active torsions:
REMARK  status: ('A' for Active; 'I' for Inactive)
REMARK    1  A    between atoms: C_2  and  N_3
REMARK    2  A    between atoms: N_3  and  C_4
REMARK    3  A    between atoms: C_4  and  C_5
REMARK                            x       y       z     vdW  Elec       q    Type
REMARK                         _______ _______ _______ _____ _____    ______ ____
ROOT
ATOM      1  C   UNL     1       7.370  -0.394  19.426  0.00  0.00    +0.000 A 
ATOM      2  C   UNL     1       5.916  -0.488  19.609  0.00  0.00    +0.000 A 
ATOM      3  N   UNL     1       5.373   0.324  18.494  0.00  0.00    +0.000 N 
ATOM      4  C   UNL     1       4.726   1.537  19.059  0.00  0.00    +0.000 C 
ATOM      5  N   UNL     1       6.591   0.777  17.881  0.00  0.00    +0.000 NA
ATOM      6  N   UNL     1       7.617   0.218  18.320  0.00  0.00    +0.000 NA
ENDROOT
BRANCH   1   7
ATOM      7  C   UNL     1       8.364  -0.216  20.530  0.00  0.00    +0.000 C 
BRANCH   7   8
ATOM      8  N   UNL     1       8.293   1.113  21.077  0.00  0.00    +0.000 NA
BRANCH   8  10
ATOM      9  C   UNL     1      10.071   0.202  22.458  0.00  0.00    +0.000 C 
ATOM     10  C   UNL     1       9.503   1.426  21.763  0.00  0.00    +0.000 C 
ENDBRANCH   8  10
ENDBRANCH   7   8
ENDBRANCH   1   7
TORSDOF 3
ENDMDL
MODEL 2
REMARK VINA RESULT:      -4.1      4.767      6.166
REMARK  Name = 
REMARK  3 active torsions:
REMARK  status: ('A' for Active; 'I' for Inactive)
REMARK    1  A    between atoms: C_2  and  N_3
REMARK    2  A    between atoms: N_3  and  C_4
REMARK    3  A    between atoms: C_4  and  C_5
REMARK                            x       y       z     vdW  Elec       q    Type
REMARK                         _______ _______ _______ _____ _____    ______ ____
ROOT
ATOM      1  C   UNL     1       9.208  -3.136  24.192  0.00  0.00    +0.000 A 
ATOM      2  C   UNL     1       7.799  -3.401  23.870  0.00  0.00    +0.000 A 
ATOM      3  N   UNL     1       7.684  -4.872  24.004  0.00  0.00    +0.000 N 
ATOM      4  C   UNL     1       7.442  -5.457  22.659  0.00  0.00    +0.000 C 
ATOM      5  N   UNL     1       9.039  -5.213  24.343  0.00  0.00    +0.000 NA
ATOM      6  N   UNL     1       9.760  -4.226  24.597  0.00  0.00    +0.000 NA
ENDROOT
BRANCH   1   7
ATOM      7  C   UNL     1      10.086  -2.165  23.466  0.00  0.00    +0.000 C 
BRANCH   7   8
ATOM      8  N   UNL     1       9.628  -1.968  22.116  0.00  0.00    +0.000 NA
BRANCH   8  10
ATOM      9  C   UNL     1       8.604  -0.226  20.769  0.00  0.00    +0.000 C 
ATOM     10  C   UNL     1       9.679  -0.585  21.778  0.00  0.00    +0.000 C 
ENDBRANCH   8  10
ENDBRANCH   7   8
ENDBRANCH   1   7
TORSDOF 3
ENDMDL
MODEL 3
REMARK VINA RESULT:      -3.8      3.041      5.345
REMARK  Name = 
REMARK  3 active torsions:
REMARK  status: ('A' for Active; 'I' for Inactive)
REMARK    1  A    between atoms: C_2  and  N_3
REMARK    2  A    between atoms: N_3  and  C_4
REMARK    3  A    between atoms: C_4  and  C_5
REMARK                            x       y       z     vdW  Elec       q    Type
REMARK                         _______ _______ _______ _____ _____    ______ ____
ROOT
ATOM      1  C   UNL     1      10.017  -0.775  22.810  0.00  0.00    +0.000 A 
ATOM      2  C   UNL     1       9.235  -0.704  24.051  0.00  0.00    +0.000 A 
ATOM      3  N   UNL     1       9.306  -2.085  24.584  0.00  0.00    +0.000 N 
ATOM      4  C   UNL     1       7.952  -2.693  24.515  0.00  0.00    +0.000 C 
ATOM      5  N   UNL     1      10.079  -2.725  23.555  0.00  0.00    +0.000 NA
ATOM      6  N   UNL     1      10.573  -1.934  22.727  0.00  0.00    +0.000 NA
ENDROOT
BRANCH   1   7
ATOM      7  C   UNL     1       9.642  -0.114  21.520  0.00  0.00    +0.000 C 
BRANCH   7   8
ATOM      8  N   UNL     1       8.325  -0.517  21.100  0.00  0.00    +0.000 NA
BRANCH   8  10
ATOM      9  C   UNL     1       7.413   0.182  18.961  0.00  0.00    +0.000 C 
ATOM     10  C   UNL     1       7.684   0.551  20.408  0.00  0.00    +0.000 C 
ENDBRANCH   8  10
ENDBRANCH   7   8
ENDBRANCH   1   7
TORSDOF 3
ENDMDL
MODEL 4
REMARK VINA RESULT:      -3.8      4.138      5.748
REMARK  Name = 
REMARK  3 active torsions:
REMARK  status: ('A' for Active; 'I' for Inactive)
REMARK    1  A    between atoms: C_2  and  N_3
REMARK    2  A    between atoms: N_3  and  C_4
REMARK    3  A    between atoms: C_4  and  C_5
REMARK                            x       y       z     vdW  Elec       q    Type
REMARK                         _______ _______ _______ _____ _____    ______ ____
ROOT
ATOM      1  C   UNL     1       9.047  -2.140  23.339  0.00  0.00    +0.000 A 
ATOM      2  C   UNL     1       7.921  -2.670  24.119  0.00  0.00    +0.000 A 
ATOM      3  N   UNL     1       8.516  -3.812  24.853  0.00  0.00    +0.000 N 
ATOM      4  C   UNL     1       7.925  -5.073  24.334  0.00  0.00    +0.000 C 
ATOM      5  N   UNL     1       9.863  -3.773  24.353  0.00  0.00    +0.000 NA
ATOM      6  N   UNL     1      10.125  -2.754  23.684  0.00  0.00    +0.000 NA
ENDROOT
BRANCH   1   7
ATOM      7  C   UNL     1       8.962  -1.671  21.921  0.00  0.00    +0.000 C 
BRANCH   7   8
ATOM      8  N   UNL     1       9.899  -0.606  21.674  0.00  0.00    +0.000 NA
BRANCH   8  10
ATOM      9  C   UNL     1      10.006   1.784  22.090  0.00  0.00    +0.000 C 
ATOM     10  C   UNL     1       9.206   0.629  21.515  0.00  0.00    +0.000 C 
ENDBRANCH   8  10
ENDBRANCH   7   8
ENDBRANCH   1   7
TORSDOF 3
ENDMDL
MODEL 5
REMARK VINA RESULT:      -3.6      4.126      5.950
REMARK  Name = 
REMARK  3 active torsions:
REMARK  status: ('A' for Active; 'I' for Inactive)
REMARK    1  A    between atoms: C_2  and  N_3
REMARK    2  A    between atoms: N_3  and  C_4
REMARK    3  A    between atoms: C_4  and  C_5
REMARK                            x       y       z     vdW  Elec       q    Type
REMARK                         _______ _______ _______ _____ _____    ______ ____
ROOT
ATOM      1  C   UNL     1       9.957  -1.690  23.727  0.00  0.00    +0.000 A 
ATOM      2  C   UNL     1      10.178  -1.461  22.293  0.00  0.00    +0.000 A 
ATOM      3  N   UNL     1      10.115   0.014  22.165  0.00  0.00    +0.000 N 
ATOM      4  C   UNL     1       8.901   0.374  21.387  0.00  0.00    +0.000 C 
ATOM      5  N   UNL     1       9.835   0.385  23.525  0.00  0.00    +0.000 NA
ATOM      6  N   UNL     1       9.937  -0.557  24.337  0.00  0.00    +0.000 NA
ENDROOT
BRANCH   1   7
ATOM      7  C   UNL     1       9.106  -2.780  24.300  0.00  0.00    +0.000 C 
BRANCH   7   8
ATOM      8  N   UNL     1       9.866  -3.990  24.471  0.00  0.00    +0.000 NA
BRANCH   8  10
ATOM      9  C   UNL     1       8.794  -4.665  26.543  0.00  0.00    +0.000 C 
ATOM     10  C   UNL     1       9.060  -4.992  25.085  0.00  0.00    +0.000 C 
ENDBRANCH   8  10
ENDBRANCH   7   8
ENDBRANCH   1   7
TORSDOF 3
ENDMDL
MODEL 6
REMARK VINA RESULT:      -3.6      4.008      4.667
REMARK  Name = 
REMARK  3 active torsions:
REMARK  status: ('A' for Active; 'I' for Inactive)
REMARK    1  A    between atoms: C_2  and  N_3
REMARK    2  A    between atoms: N_3  and  C_4
REMARK    3  A    between atoms: C_4  and  C_5
REMARK                            x       y       z     vdW  Elec       q    Type
REMARK                         _______ _______ _______ _____ _____    ______ ____
ROOT
ATOM      1  C   UNL     1       6.834  -2.482  21.849  0.00  0.00    +0.000 A 
ATOM      2  C   UNL     1       7.485  -3.641  22.474  0.00  0.00    +0.000 A 
ATOM      3  N   UNL     1       6.428  -4.680  22.461  0.00  0.00    +0.000 N 
ATOM      4  C   UNL     1       6.015  -4.958  23.861  0.00  0.00    +0.000 C 
ATOM      5  N   UNL     1       5.344  -3.945  21.869  0.00  0.00    +0.000 NA
ATOM      6  N   UNL     1       5.677  -2.835  21.408  0.00  0.00    +0.000 NA
ENDROOT
BRANCH   1   7
ATOM      7  C   UNL     1       6.976  -1.066  22.312  0.00  0.00    +0.000 C 
BRANCH   7   8
ATOM      8  N   UNL     1       7.078  -0.167  21.193  0.00  0.00    +0.000 NA
BRANCH   8  10
ATOM      9  C   UNL     1       9.401   0.447  21.544  0.00  0.00    +0.000 C 
ATOM     10  C   UNL     1       8.388  -0.225  20.635  0.00  0.00    +0.000 C 
ENDBRANCH   8  10
ENDBRANCH   7   8
ENDBRANCH   1   7
TORSDOF 3
ENDMDL
MODEL 7
REMARK VINA RESULT:      -3.5      6.514      8.121
REMARK  Name = 
REMARK  3 active torsions:
REMARK  status: ('A' for Active; 'I' for Inactive)
REMARK    1  A    between atoms: C_2  and  N_3
REMARK    2  A    between atoms: N_3  and  C_4
REMARK    3  A    between atoms: C_4  and  C_5
REMARK                            x       y       z     vdW  Elec       q    Type
REMARK                         _______ _______ _______ _____ _____    ______ ____
ROOT
ATOM      1  C   UNL     1       8.300  -4.159  24.175  0.00  0.00    +0.000 A 
ATOM      2  C   UNL     1       7.980  -3.605  25.497  0.00  0.00    +0.000 A 
ATOM      3  N   UNL     1       8.576  -4.584  26.436  0.00  0.00    +0.000 N 
ATOM      4  C   UNL     1       7.479  -5.275  27.164  0.00  0.00    +0.000 C 
ATOM      5  N   UNL     1       9.103  -5.550  25.511  0.00  0.00    +0.000 NA
ATOM      6  N   UNL     1       9.075  -5.177  24.321  0.00  0.00    +0.000 NA
ENDROOT
BRANCH   1   7
ATOM      7  C   UNL     1       7.364  -4.186  23.007  0.00  0.00    +0.000 C 
BRANCH   7   8
ATOM      8  N   UNL     1       6.097  -4.759  23.378  0.00  0.00    +0.000 NA
BRANCH   8  10
ATOM      9  C   UNL     1       6.546  -5.762  21.212  0.00  0.00    +0.000 C 
ATOM     10  C   UNL     1       5.786  -5.856  22.522  0.00  0.00    +0.000 C 
ENDBRANCH   8  10
ENDBRANCH   7   8
ENDBRANCH   1   7
TORSDOF 3
ENDMDL
MODEL 8
REMARK VINA RESULT:      -3.5      8.126      9.362
REMARK  Name = 
REMARK  3 active torsions:
REMARK  status: ('A' for Active; 'I' for Inactive)
REMARK    1  A    between atoms: C_2  and  N_3
REMARK    2  A    between atoms: N_3  and  C_4
REMARK    3  A    between atoms: C_4  and  C_5
REMARK                            x       y       z     vdW  Elec       q    Type
REMARK                         _______ _______ _______ _____ _____    ______ ____
ROOT
ATOM      1  C   UNL     1       6.943  -4.303  26.854  0.00  0.00    +0.000 A 
ATOM      2  C   UNL     1       5.713  -4.434  27.646  0.00  0.00    +0.000 A 
ATOM      3  N   UNL     1       5.954  -5.648  28.461  0.00  0.00    +0.000 N 
ATOM      4  C   UNL     1       5.023  -6.716  28.012  0.00  0.00    +0.000 C 
ATOM      5  N   UNL     1       7.254  -6.033  27.983  0.00  0.00    +0.000 NA
ATOM      6  N   UNL     1       7.798  -5.178  27.256  0.00  0.00    +0.000 NA
ENDROOT
BRANCH   1   7
ATOM      7  C   UNL     1       6.995  -3.925  25.407  0.00  0.00    +0.000 C 
BRANCH   7   8
ATOM      8  N   UNL     1       6.829  -5.081  24.566  0.00  0.00    +0.000 NA
BRANCH   8  10
ATOM      9  C   UNL     1       7.213  -5.810  22.282  0.00  0.00    +0.000 C 
ATOM     10  C   UNL     1       7.737  -5.025  23.470  0.00  0.00    +0.000 C 
ENDBRANCH   8  10
ENDBRANCH   7   8
ENDBRANCH   1   7
TORSDOF 3
ENDMDL
MODEL 9
REMARK VINA RESULT:      -3.5      3.721      5.045
REMARK  Name = 
REMARK  3 active torsions:
REMARK  status: ('A' for Active; 'I' for Inactive)
REMARK    1  A    between atoms: C_2  and  N_3
REMARK    2  A    between atoms: N_3  and  C_4
REMARK    3  A    between atoms: C_4  and  C_5
REMARK                            x       y       z     vdW  Elec       q    Type
REMARK                         _______ _______ _______ _____ _____    ______ ____
ROOT
ATOM      1  C   UNL     1       9.035  -2.556  23.494  0.00  0.00    +0.000 A 
ATOM      2  C   UNL     1       8.327  -1.906  22.383  0.00  0.00    +0.000 A 
ATOM      3  N   UNL     1       9.423  -1.374  21.539  0.00  0.00    +0.000 N 
ATOM      4  C   UNL     1       9.390   0.111  21.593  0.00  0.00    +0.000 C 
ATOM      5  N   UNL     1      10.568  -1.771  22.313  0.00  0.00    +0.000 NA
ATOM      6  N   UNL     1      10.299  -2.547  23.251  0.00  0.00    +0.000 NA
ENDROOT
BRANCH   1   7
ATOM      7  C   UNL     1       8.623  -2.486  24.931  0.00  0.00    +0.000 C 
BRANCH   7   8
ATOM      8  N   UNL     1       8.025  -1.212  25.233  0.00  0.00    +0.000 NA
BRANCH   8  10
ATOM      9  C   UNL     1       8.951   1.024  25.041  0.00  0.00    +0.000 C 
ATOM     10  C   UNL     1       9.009  -0.318  25.746  0.00  0.00    +0.000 C 
ENDBRANCH   8  10
ENDBRANCH   7   8
ENDBRANCH   1   7
TORSDOF 3
ENDMDL
