MODEL 1
REMARK VINA RESULT:      -6.4      0.000      0.000
REMARK  Name = 
REMARK  3 active torsions:
REMARK  status: ('A' for Active; 'I' for Inactive)
REMARK    1  A    between atoms: N_3  and  C_4
REMARK    2  A    between atoms: C_4  and  C_5
REMARK    3  A    between atoms: C_8  and  C_9
REMARK                            x       y       z     vdW  Elec       q    Type
REMARK                         _______ _______ _______ _____ _____    ______ ____
ROOT
ATOM      1  O   UNL     1       8.985  -5.429  24.135  0.00  0.00    +0.000 OA
ATOM      2  C   UNL     1       8.378  -4.445  24.557  0.00  0.00    +0.000 C 
ATOM      3  N   UNL     1       9.053  -3.415  25.093  0.00  0.00    +0.000 NA
ATOM      4  N   UNL     1       7.293  -4.685  25.356  0.00  0.00    +0.000 N 
ATOM      5  C   UNL     1       7.399  -4.444  26.762  0.00  0.00    +0.000 C 
ATOM      6  C   UNL     1       6.744  -5.470  27.621  0.00  0.00    +0.000 C 
ATOM      7  O   UNL     1       6.157  -6.480  26.874  0.00  0.00    +0.000 OA
ATOM      8  C   UNL     1       5.280  -5.877  25.943  0.00  0.00    +0.000 C 
ATOM      9  C   UNL     1       6.174  -5.414  24.783  0.00  0.00    +0.000 C 
ENDROOT
BRANCH   3  10
ATOM     10  C   UNL     1       8.825  -2.054  24.757  0.00  0.00    +0.000 C 
BRANCH  10  11
ATOM     11  C   UNL     1       9.896  -1.424  23.979  0.00  0.00    +0.000 A 
ATOM     12  C   UNL     1       9.582  -1.606  22.372  0.00  0.00    +0.000 A 
ATOM     13  C   UNL     1       9.605  -0.252  21.731  0.00  0.00    +0.000 A 
ATOM     14  C   UNL     1       9.973   1.126  22.080  0.00  0.00    +0.000 A 
ATOM     15  C   UNL     1      10.233   1.297  23.598  0.00  0.00    +0.000 A 
ATOM     16  C   UNL     1      10.358  -0.065  24.267  0.00  0.00    +0.000 A 
BRANCH  14  17
ATOM     17  C   UNL     1       8.903   1.856  21.785  0.00  0.00    +0.000 C 
ATOM     18  N   UNL     1       8.200   1.236  21.066  0.00  0.00    +0.000 NA
ENDBRANCH  14  17
ENDBRANCH  10  11
ENDBRANCH   3  10
TORSDOF 3
ENDMDL
MODEL 2
REMARK VINA RESULT:      -6.4      2.239      2.895
REMARK  Name = 
REMARK  3 active torsions:
REMARK  status: ('A' for Active; 'I' for Inactive)
REMARK    1  A    between atoms: N_3  and  C_4
REMARK    2  A    between atoms: C_4  and  C_5
REMARK    3  A    between atoms: C_8  and  C_9
REMARK                            x       y       z     vdW  Elec       q    Type
REMARK                         _______ _______ _______ _____ _____    ______ ____
ROOT
ATOM      1  O   UNL     1       7.667  -5.101  25.142  0.00  0.00    +0.000 OA
ATOM      2  C   UNL     1       8.181  -4.456  24.228  0.00  0.00    +0.000 C 
ATOM      3  N   UNL     1       8.605  -3.199  24.446  0.00  0.00    +0.000 NA
ATOM      4  N   UNL     1       7.532  -4.466  23.023  0.00  0.00    +0.000 N 
ATOM      5  C   UNL     1       6.817  -3.299  22.609  0.00  0.00    +0.000 C 
ATOM      6  C   UNL     1       5.507  -3.570  21.954  0.00  0.00    +0.000 C 
ATOM      7  O   UNL     1       5.229  -4.927  21.881  0.00  0.00    +0.000 OA
ATOM      8  C   UNL     1       6.322  -5.560  21.246  0.00  0.00    +0.000 C 
ATOM      9  C   UNL     1       7.380  -5.742  22.343  0.00  0.00    +0.000 C 
ENDROOT
BRANCH   3  10
ATOM     10  C   UNL     1       9.876  -2.708  24.043  0.00  0.00    +0.000 C 
BRANCH  10  11
ATOM     11  C   UNL     1       9.910  -1.276  23.731  0.00  0.00    +0.000 A 
ATOM     12  C   UNL     1      10.453  -1.067  22.189  0.00  0.00    +0.000 A 
ATOM     13  C   UNL     1       9.447  -0.245  21.442  0.00  0.00    +0.000 A 
ATOM     14  C   UNL     1       8.237   0.536  21.724  0.00  0.00    +0.000 A 
ATOM     15  C   UNL     1       7.712   0.308  23.164  0.00  0.00    +0.000 A 
ATOM     16  C   UNL     1       8.766  -0.403  24.001  0.00  0.00    +0.000 A 
BRANCH  14  17
ATOM     17  C   UNL     1       7.315   0.058  20.895  0.00  0.00    +0.000 C 
ATOM     18  N   UNL     1       7.660   0.253  19.782  0.00  0.00    +0.000 NA
ENDBRANCH  14  17
ENDBRANCH  10  11
ENDBRANCH   3  10
TORSDOF 3
ENDMDL
MODEL 3
REMARK VINA RESULT:      -6.4      2.956      4.077
REMARK  Name = 
REMARK  3 active torsions:
REMARK  status: ('A' for Active; 'I' for Inactive)
REMARK    1  A    between atoms: N_3  and  C_4
REMARK    2  A    between atoms: C_4  and  C_5
REMARK    3  A    between atoms: C_8  and  C_9
REMARK                            x       y       z     vdW  Elec       q    Type
REMARK                         _______ _______ _______ _____ _____    ______ ____
ROOT
ATOM      1  O   UNL     1       5.305  -1.588  24.786  0.00  0.00    +0.000 OA
ATOM      2  C   UNL     1       6.426  -1.409  24.310  0.00  0.00    +0.000 C 
ATOM      3  N   UNL     1       6.611  -0.490  23.348  0.00  0.00    +0.000 NA
ATOM      4  N   UNL     1       7.130  -2.526  23.950  0.00  0.00    +0.000 N 
ATOM      5  C   UNL     1       7.273  -2.840  22.562  0.00  0.00    +0.000 C 
ATOM      6  C   UNL     1       7.142  -4.288  22.234  0.00  0.00    +0.000 C 
ATOM      7  O   UNL     1       6.894  -5.059  23.359  0.00  0.00    +0.000 OA
ATOM      8  C   UNL     1       7.907  -4.782  24.306  0.00  0.00    +0.000 C 
ATOM      9  C   UNL     1       7.476  -3.478  24.993  0.00  0.00    +0.000 C 
ENDROOT
BRANCH   3  10
ATOM     10  C   UNL     1       7.655   0.474  23.359  0.00  0.00    +0.000 C 
BRANCH  10  11
ATOM     11  C   UNL     1       7.883   1.147  22.076  0.00  0.00    +0.000 A 
ATOM     12  C   UNL     1       8.804   0.180  21.110  0.00  0.00    +0.000 A 
ATOM     13  C   UNL     1       8.084  -0.010  19.809  0.00  0.00    +0.000 A 
ATOM     14  C   UNL     1       6.910   0.529  19.112  0.00  0.00    +0.000 A 
ATOM     15  C   UNL     1       6.030   1.409  20.036  0.00  0.00    +0.000 A 
ATOM     16  C   UNL     1       6.783   1.744  21.316  0.00  0.00    +0.000 A 
BRANCH  14  17
ATOM     17  C   UNL     1       6.184  -0.534  18.782  0.00  0.00    +0.000 C 
ATOM     18  N   UNL     1       5.871  -0.449  17.647  0.00  0.00    +0.000 NA
ENDBRANCH  14  17
ENDBRANCH  10  11
ENDBRANCH   3  10
TORSDOF 3
ENDMDL
MODEL 4
REMARK VINA RESULT:      -6.3      2.895      3.221
REMARK  Name = 
REMARK  3 active torsions:
REMARK  status: ('A' for Active; 'I' for Inactive)
REMARK    1  A    between atoms: N_3  and  C_4
REMARK    2  A    between atoms: C_4  and  C_5
REMARK    3  A    between atoms: C_8  and  C_9
REMARK                            x       y       z     vdW  Elec       q    Type
REMARK                         _______ _______ _______ _____ _____    ______ ____
ROOT
ATOM      1  O   UNL     1       6.258  -1.852  21.249  0.00  0.00    +0.000 OA
ATOM      2  C   UNL     1       6.886  -2.371  22.172  0.00  0.00    +0.000 C 
ATOM      3  N   UNL     1       8.229  -2.368  22.159  0.00  0.00    +0.000 NA
ATOM      4  N   UNL     1       6.483  -3.616  22.571  0.00  0.00    +0.000 N 
ATOM      5  C   UNL     1       7.281  -4.750  22.221  0.00  0.00    +0.000 C 
ATOM      6  C   UNL     1       6.506  -5.952  21.803  0.00  0.00    +0.000 C 
ATOM      7  O   UNL     1       5.138  -5.728  21.829  0.00  0.00    +0.000 OA
ATOM      8  C   UNL     1       4.800  -5.256  23.118  0.00  0.00    +0.000 C 
ATOM      9  C   UNL     1       5.138  -3.758  23.104  0.00  0.00    +0.000 C 
ENDROOT
BRANCH   3  10
ATOM     10  C   UNL     1       9.035  -1.995  23.268  0.00  0.00    +0.000 C 
BRANCH  10  11
ATOM     11  C   UNL     1      10.100  -1.036  22.959  0.00  0.00    +0.000 A 
ATOM     12  C   UNL     1       9.703  -0.201  21.594  0.00  0.00    +0.000 A 
ATOM     13  C   UNL     1       9.764   1.264  21.903  0.00  0.00    +0.000 A 
ATOM     14  C   UNL     1      10.216   2.143  22.989  0.00  0.00    +0.000 A 
ATOM     15  C   UNL     1      10.554   1.355  24.280  0.00  0.00    +0.000 A 
ATOM     16  C   UNL     1      10.642  -0.135  23.979  0.00  0.00    +0.000 A 
BRANCH  14  17
ATOM     17  C   UNL     1       9.172   2.915  23.268  0.00  0.00    +0.000 C 
ATOM     18  N   UNL     1       8.938   2.843  24.423  0.00  0.00    +0.000 NA
ENDBRANCH  14  17
ENDBRANCH  10  11
ENDBRANCH   3  10
TORSDOF 3
ENDMDL
MODEL 5
REMARK VINA RESULT:      -6.2      1.598      1.965
REMARK  Name = 
REMARK  3 active torsions:
REMARK  status: ('A' for Active; 'I' for Inactive)
REMARK    1  A    between atoms: N_3  and  C_4
REMARK    2  A    between atoms: C_4  and  C_5
REMARK    3  A    between atoms: C_8  and  C_9
REMARK                            x       y       z     vdW  Elec       q    Type
REMARK                         _______ _______ _______ _____ _____    ______ ____
ROOT
ATOM      1  O   UNL     1       7.430  -5.592  22.629  0.00  0.00    +0.000 OA
ATOM      2  C   UNL     1       7.455  -4.461  23.115  0.00  0.00    +0.000 C 
ATOM      3  N   UNL     1       8.363  -3.566  22.692  0.00  0.00    +0.000 NA
ATOM      4  N   UNL     1       7.397  -4.374  24.479  0.00  0.00    +0.000 N 
ATOM      5  C   UNL     1       8.582  -4.035  25.205  0.00  0.00    +0.000 C 
ATOM      6  C   UNL     1       8.781  -4.802  26.466  0.00  0.00    +0.000 C 
ATOM      7  O   UNL     1       7.763  -5.717  26.688  0.00  0.00    +0.000 OA
ATOM      8  C   UNL     1       6.534  -5.020  26.637  0.00  0.00    +0.000 C 
ATOM      9  C   UNL     1       6.207  -4.881  25.143  0.00  0.00    +0.000 C 
ENDROOT
BRANCH   3  10
ATOM     10  C   UNL     1       8.054  -2.225  22.340  0.00  0.00    +0.000 C 
BRANCH  10  11
ATOM     11  C   UNL     1       9.200  -1.426  21.894  0.00  0.00    +0.000 A 
ATOM     12  C   UNL     1       8.674  -0.232  20.887  0.00  0.00    +0.000 A 
ATOM     13  C   UNL     1       9.165   1.081  21.415  0.00  0.00    +0.000 A 
ATOM     14  C   UNL     1      10.082   1.579  22.448  0.00  0.00    +0.000 A 
ATOM     15  C   UNL     1      10.545   0.457  23.413  0.00  0.00    +0.000 A 
ATOM     16  C   UNL     1      10.189  -0.908  22.841  0.00  0.00    +0.000 A 
BRANCH  14  17
ATOM     17  C   UNL     1       9.364   2.436  23.165  0.00  0.00    +0.000 C 
ATOM     18  N   UNL     1       9.630   2.300  24.308  0.00  0.00    +0.000 NA
ENDBRANCH  14  17
ENDBRANCH  10  11
ENDBRANCH   3  10
TORSDOF 3
ENDMDL
MODEL 6
REMARK VINA RESULT:      -6.2      2.565      3.406
REMARK  Name = 
REMARK  3 active torsions:
REMARK  status: ('A' for Active; 'I' for Inactive)
REMARK    1  A    between atoms: N_3  and  C_4
REMARK    2  A    between atoms: C_4  and  C_5
REMARK    3  A    between atoms: C_8  and  C_9
REMARK                            x       y       z     vdW  Elec       q    Type
REMARK                         _______ _______ _______ _____ _____    ______ ____
ROOT
ATOM      1  O   UNL     1      10.136  -2.676  22.981  0.00  0.00    +0.000 OA
ATOM      2  C   UNL     1       9.019  -2.317  23.355  0.00  0.00    +0.000 C 
ATOM      3  N   UNL     1       8.795  -1.029  23.666  0.00  0.00    +0.000 NA
ATOM      4  N   UNL     1       8.414  -3.081  24.316  0.00  0.00    +0.000 N 
ATOM      5  C   UNL     1       8.338  -2.584  25.654  0.00  0.00    +0.000 C 
ATOM      6  C   UNL     1       8.588  -3.602  26.712  0.00  0.00    +0.000 C 
ATOM      7  O   UNL     1       8.860  -4.854  26.180  0.00  0.00    +0.000 OA
ATOM      8  C   UNL     1       7.801  -5.193  25.307  0.00  0.00    +0.000 C 
ATOM      9  C   UNL     1       8.110  -4.465  23.991  0.00  0.00    +0.000 C 
ENDROOT
BRANCH   3  10
ATOM     10  C   UNL     1       7.681  -0.281  23.199  0.00  0.00    +0.000 C 
BRANCH  10  11
ATOM     11  C   UNL     1       7.961   0.585  22.050  0.00  0.00    +0.000 A 
ATOM     12  C   UNL     1       8.784  -0.273  20.908  0.00  0.00    +0.000 A 
ATOM     13  C   UNL     1       8.042  -0.165  19.611  0.00  0.00    +0.000 A 
ATOM     14  C   UNL     1       6.917   0.590  19.045  0.00  0.00    +0.000 A 
ATOM     15  C   UNL     1       6.127   1.366  20.129  0.00  0.00    +0.000 A 
ATOM     16  C   UNL     1       6.916   1.402  21.431  0.00  0.00    +0.000 A 
BRANCH  14  17
ATOM     17  C   UNL     1       6.096  -0.330  18.550  0.00  0.00    +0.000 C 
ATOM     18  N   UNL     1       5.818  -0.040  17.440  0.00  0.00    +0.000 NA
ENDBRANCH  14  17
ENDBRANCH  10  11
ENDBRANCH   3  10
TORSDOF 3
ENDMDL
MODEL 7
REMARK VINA RESULT:      -6.0      1.838      2.690
REMARK  Name = 
REMARK  3 active torsions:
REMARK  status: ('A' for Active; 'I' for Inactive)
REMARK    1  A    between atoms: N_3  and  C_4
REMARK    2  A    between atoms: C_4  and  C_5
REMARK    3  A    between atoms: C_8  and  C_9
REMARK                            x       y       z     vdW  Elec       q    Type
REMARK                         _______ _______ _______ _____ _____    ______ ____
ROOT
ATOM      1  O   UNL     1       7.453  -1.387  26.413  0.00  0.00    +0.000 OA
ATOM      2  C   UNL     1       8.439  -1.702  25.748  0.00  0.00    +0.000 C 
ATOM      3  N   UNL     1       8.779  -0.984  24.664  0.00  0.00    +0.000 NA
ATOM      4  N   UNL     1       8.566  -3.025  25.420  0.00  0.00    +0.000 N 
ATOM      5  C   UNL     1       8.304  -3.435  24.075  0.00  0.00    +0.000 C 
ATOM      6  C   UNL     1       7.556  -4.718  23.950  0.00  0.00    +0.000 C 
ATOM      7  O   UNL     1       7.249  -5.267  25.186  0.00  0.00    +0.000 OA
ATOM      8  C   UNL     1       8.452  -5.381  25.920  0.00  0.00    +0.000 C 
ATOM      9  C   UNL     1       8.707  -3.984  26.503  0.00  0.00    +0.000 C 
ENDROOT
BRANCH   3  10
ATOM     10  C   UNL     1      10.097  -0.529  24.393  0.00  0.00    +0.000 C 
BRANCH  10  11
ATOM     11  C   UNL     1      10.289   0.032  23.052  0.00  0.00    +0.000 A 
ATOM     12  C   UNL     1       9.883  -1.099  21.924  0.00  0.00    +0.000 A 
ATOM     13  C   UNL     1       8.864  -0.502  21.002  0.00  0.00    +0.000 A 
ATOM     14  C   UNL     1       8.263   0.809  20.726  0.00  0.00    +0.000 A 
ATOM     15  C   UNL     1       8.620   1.858  21.809  0.00  0.00    +0.000 A 
ATOM     16  C   UNL     1       9.755   1.345  22.685  0.00  0.00    +0.000 A 
BRANCH  14  17
ATOM     17  C   UNL     1       6.951   0.610  20.796  0.00  0.00    +0.000 C 
ATOM     18  N   UNL     1       6.460   0.912  19.766  0.00  0.00    +0.000 NA
ENDBRANCH  14  17
ENDBRANCH  10  11
ENDBRANCH   3  10
TORSDOF 3
ENDMDL
MODEL 8
REMARK VINA RESULT:      -6.0      2.421      3.064
REMARK  Name = 
REMARK  3 active torsions:
REMARK  status: ('A' for Active; 'I' for Inactive)
REMARK    1  A    between atoms: N_3  and  C_4
REMARK    2  A    between atoms: C_4  and  C_5
REMARK    3  A    between atoms: C_8  and  C_9
REMARK                            x       y       z     vdW  Elec       q    Type
REMARK                         _______ _______ _______ _____ _____    ______ ____
ROOT
ATOM      1  O   UNL     1       8.638  -2.732  25.135  0.00  0.00    +0.000 OA
ATOM      2  C   UNL     1       8.711  -2.747  23.906  0.00  0.00    +0.000 C 
ATOM      3  N   UNL     1       8.879  -1.599  23.228  0.00  0.00    +0.000 NA
ATOM      4  N   UNL     1       7.768  -3.482  23.240  0.00  0.00    +0.000 N 
ATOM      5  C   UNL     1       6.719  -2.802  22.547  0.00  0.00    +0.000 C 
ATOM      6  C   UNL     1       5.375  -3.433  22.677  0.00  0.00    +0.000 C 
ATOM      7  O   UNL     1       5.407  -4.572  23.467  0.00  0.00    +0.000 OA
ATOM      8  C   UNL     1       6.391  -5.439  22.939  0.00  0.00    +0.000 C 
ATOM      9  C   UNL     1       7.728  -4.915  23.481  0.00  0.00    +0.000 C 
ENDROOT
BRANCH   3  10
ATOM     10  C   UNL     1       9.838  -1.420  22.194  0.00  0.00    +0.000 C 
BRANCH  10  11
ATOM     11  C   UNL     1       9.734  -0.147  21.474  0.00  0.00    +0.000 A 
ATOM     12  C   UNL     1       8.345  -0.135  20.586  0.00  0.00    +0.000 A 
ATOM     13  C   UNL     1       7.562   1.089  20.952  0.00  0.00    +0.000 A 
ATOM     14  C   UNL     1       7.743   2.321  21.729  0.00  0.00    +0.000 A 
ATOM     15  C   UNL     1       9.032   2.288  22.589  0.00  0.00    +0.000 A 
ATOM     16  C   UNL     1       9.927   1.137  22.152  0.00  0.00    +0.000 A 
BRANCH  14  17
ATOM     17  C   UNL     1       6.716   2.353  22.571  0.00  0.00    +0.000 C 
ATOM     18  N   UNL     1       6.803   3.317  23.248  0.00  0.00    +0.000 NA
ENDBRANCH  14  17
ENDBRANCH  10  11
ENDBRANCH   3  10
TORSDOF 3
ENDMDL
MODEL 9
REMARK VINA RESULT:      -6.0      2.758      6.407
REMARK  Name = 
REMARK  3 active torsions:
REMARK  status: ('A' for Active; 'I' for Inactive)
REMARK    1  A    between atoms: N_3  and  C_4
REMARK    2  A    between atoms: C_4  and  C_5
REMARK    3  A    between atoms: C_8  and  C_9
REMARK                            x       y       z     vdW  Elec       q    Type
REMARK                         _______ _______ _______ _____ _____    ______ ____
ROOT
ATOM      1  O   UNL     1      10.615  -1.869  22.354  0.00  0.00    +0.000 OA
ATOM      2  C   UNL     1      10.049  -1.945  23.444  0.00  0.00    +0.000 C 
ATOM      3  N   UNL     1       9.116  -2.888  23.655  0.00  0.00    +0.000 NA
ATOM      4  N   UNL     1       9.578  -0.776  23.979  0.00  0.00    +0.000 N 
ATOM      5  C   UNL     1       8.171  -0.524  23.968  0.00  0.00    +0.000 C 
ATOM      6  C   UNL     1       7.791   0.879  23.640  0.00  0.00    +0.000 C 
ATOM      7  O   UNL     1       8.899   1.677  23.397  0.00  0.00    +0.000 OA
ATOM      8  C   UNL     1       9.763   1.570  24.511  0.00  0.00    +0.000 C 
ATOM      9  C   UNL     1      10.543   0.264  24.296  0.00  0.00    +0.000 C 
ENDROOT
BRANCH   3  10
ATOM     10  C   UNL     1       9.076  -3.725  24.802  0.00  0.00    +0.000 C 
BRANCH  10  11
ATOM     11  C   UNL     1       8.388  -5.005  24.605  0.00  0.00    +0.000 A 
ATOM     12  C   UNL     1       7.304  -5.234  25.825  0.00  0.00    +0.000 A 
ATOM     13  C   UNL     1       5.959  -5.493  25.218  0.00  0.00    +0.000 A 
ATOM     14  C   UNL     1       5.379  -5.751  23.894  0.00  0.00    +0.000 A 
ATOM     15  C   UNL     1       6.394  -5.499  22.750  0.00  0.00    +0.000 A 
ATOM     16  C   UNL     1       7.802  -5.371  23.315  0.00  0.00    +0.000 A 
BRANCH  14  17
ATOM     17  C   UNL     1       4.411  -4.852  23.758  0.00  0.00    +0.000 C 
ATOM     18  N   UNL     1       4.401  -4.462  22.643  0.00  0.00    +0.000 NA
ENDBRANCH  14  17
ENDBRANCH  10  11
ENDBRANCH   3  10
TORSDOF 3
ENDMDL
