MODEL 1
REMARK VINA RESULT:      -6.9      0.000      0.000
REMARK  Name = 
REMARK  3 active torsions:
REMARK  status: ('A' for Active; 'I' for Inactive)
REMARK    1  A    between atoms: C_5  and  S_9
REMARK    2  A    between atoms: S_9  and  N_12
REMARK    3  A    between atoms: C_18  and  C_20
REMARK                            x       y       z     vdW  Elec       q    Type
REMARK                         _______ _______ _______ _____ _____    ______ ____
ROOT
ATOM      1  S   UNL     1       8.251  -1.912  22.950  0.00  0.00    +0.000 S 
ATOM      2  O   UNL     1       7.891  -0.955  23.981  0.00  0.00    +0.000 OA
ATOM      3  O   UNL     1       9.564  -2.512  23.147  0.00  0.00    +0.000 OA
ENDROOT
BRANCH   1   8
ATOM      4  C   UNL     1       8.312   2.975  23.054  0.00  0.00    +0.000 C 
ATOM      5  C   UNL     1       8.577   2.201  21.779  0.00  0.00    +0.000 A 
ATOM      6  C   UNL     1       9.929   1.305  22.040  0.00  0.00    +0.000 A 
ATOM      7  C   UNL     1       9.638  -0.103  21.722  0.00  0.00    +0.000 A 
ATOM      8  C   UNL     1       8.408  -0.946  21.420  0.00  0.00    +0.000 A 
ATOM      9  C   UNL     1       7.169  -0.123  21.181  0.00  0.00    +0.000 A 
ATOM     10  C   UNL     1       6.454  -0.317  19.758  0.00  0.00    +0.000 C 
ATOM     11  C   UNL     1       7.518   1.428  21.193  0.00  0.00    +0.000 A 
ENDBRANCH   1   8
BRANCH   1  12
ATOM     12  N   UNL     1       7.150  -3.028  22.801  0.00  0.00    +0.000 NA
ATOM     13  C   UNL     1       7.444  -4.368  22.641  0.00  0.00    +0.000 C 
ATOM     14  C   UNL     1       7.799  -5.094  23.922  0.00  0.00    +0.000 C 
ATOM     15  N   UNL     1       6.767  -4.815  24.925  0.00  0.00    +0.000 N 
ATOM     16  C   UNL     1       6.311  -3.439  25.051  0.00  0.00    +0.000 C 
ATOM     17  C   UNL     1       6.044  -2.845  23.682  0.00  0.00    +0.000 C 
ATOM     18  C   UNL     1       6.678  -5.639  25.994  0.00  0.00    +0.000 C 
ATOM     19  O   UNL     1       7.566  -5.680  26.820  0.00  0.00    +0.000 OA
BRANCH  18  20
ATOM     20  C   UNL     1       5.320  -6.245  26.256  0.00  0.00    +0.000 C 
ATOM     21 CL   UNL     1       4.621  -6.849  24.732  0.00  0.00    +0.000 Cl
ENDBRANCH  18  20
ENDBRANCH   1  12
TORSDOF 3
ENDMDL
MODEL 2
REMARK VINA RESULT:      -6.8      1.856      2.135
REMARK  Name = 
REMARK  3 active torsions:
REMARK  status: ('A' for Active; 'I' for Inactive)
REMARK    1  A    between atoms: C_5  and  S_9
REMARK    2  A    between atoms: S_9  and  N_12
REMARK    3  A    between atoms: C_18  and  C_20
REMARK                            x       y       z     vdW  Elec       q    Type
REMARK                         _______ _______ _______ _____ _____    ______ ____
ROOT
ATOM      1  S   UNL     1       9.434  -0.641  22.506  0.00  0.00    +0.000 S 
ATOM      2  O   UNL     1      10.252   0.077  23.468  0.00  0.00    +0.000 OA
ATOM      3  O   UNL     1      10.153  -1.698  21.807  0.00  0.00    +0.000 OA
ENDROOT
BRANCH   1   8
ATOM      4  C   UNL     1       5.760   2.526  23.113  0.00  0.00    +0.000 C 
ATOM      5  C   UNL     1       6.697   2.609  21.925  0.00  0.00    +0.000 A 
ATOM      6  C   UNL     1       8.200   2.889  22.525  0.00  0.00    +0.000 A 
ATOM      7  C   UNL     1       9.126   1.877  21.990  0.00  0.00    +0.000 A 
ATOM      8  C   UNL     1       9.021   0.570  21.218  0.00  0.00    +0.000 A 
ATOM      9  C   UNL     1       7.643   0.314  20.669  0.00  0.00    +0.000 A 
ATOM     10  C   UNL     1       7.537   0.135  19.078  0.00  0.00    +0.000 C 
ATOM     11  C   UNL     1       6.690   1.556  20.949  0.00  0.00    +0.000 A 
ENDBRANCH   1   8
BRANCH   1  12
ATOM     12  N   UNL     1       8.130  -1.212  23.181  0.00  0.00    +0.000 NA
ATOM     13  C   UNL     1       7.407  -2.267  22.663  0.00  0.00    +0.000 C 
ATOM     14  C   UNL     1       7.985  -3.636  22.960  0.00  0.00    +0.000 C 
ATOM     15  N   UNL     1       8.253  -3.733  24.398  0.00  0.00    +0.000 N 
ATOM     16  C   UNL     1       8.894  -2.594  25.038  0.00  0.00    +0.000 C 
ATOM     17  C   UNL     1       8.229  -1.303  24.601  0.00  0.00    +0.000 C 
ATOM     18  C   UNL     1       8.412  -4.964  24.935  0.00  0.00    +0.000 C 
ATOM     19  O   UNL     1       9.370  -5.650  24.641  0.00  0.00    +0.000 OA
BRANCH  18  20
ATOM     20  C   UNL     1       7.533  -5.294  26.118  0.00  0.00    +0.000 C 
ATOM     21 CL   UNL     1       5.863  -4.756  25.799  0.00  0.00    +0.000 Cl
ENDBRANCH  18  20
ENDBRANCH   1  12
TORSDOF 3
ENDMDL
MODEL 3
REMARK VINA RESULT:      -6.4      3.447      7.030
REMARK  Name = 
REMARK  3 active torsions:
REMARK  status: ('A' for Active; 'I' for Inactive)
REMARK    1  A    between atoms: C_5  and  S_9
REMARK    2  A    between atoms: S_9  and  N_12
REMARK    3  A    between atoms: C_18  and  C_20
REMARK                            x       y       z     vdW  Elec       q    Type
REMARK                         _______ _______ _______ _____ _____    ______ ____
ROOT
ATOM      1  S   UNL     1       7.868  -2.850  23.526  0.00  0.00    +0.000 S 
ATOM      2  O   UNL     1       6.772  -2.195  24.218  0.00  0.00    +0.000 OA
ATOM      3  O   UNL     1       7.665  -2.959  22.087  0.00  0.00    +0.000 OA
ENDROOT
BRANCH   1   8
ATOM      4  C   UNL     1       3.845  -5.614  23.244  0.00  0.00    +0.000 C 
ATOM      5  C   UNL     1       5.177  -6.187  23.685  0.00  0.00    +0.000 A 
ATOM      6  C   UNL     1       6.209  -6.014  22.419  0.00  0.00    +0.000 A 
ATOM      7  C   UNL     1       7.421  -5.317  22.880  0.00  0.00    +0.000 A 
ATOM      8  C   UNL     1       7.867  -4.565  24.125  0.00  0.00    +0.000 A 
ATOM      9  C   UNL     1       6.919  -4.723  25.285  0.00  0.00    +0.000 A 
ATOM     10  C   UNL     1       7.540  -5.349  26.626  0.00  0.00    +0.000 C 
ATOM     11  C   UNL     1       5.757  -5.745  24.922  0.00  0.00    +0.000 A 
ENDBRANCH   1   8
BRANCH   1  12
ATOM     12  N   UNL     1       9.241  -2.145  23.840  0.00  0.00    +0.000 NA
ATOM     13  C   UNL     1      10.175  -1.837  22.871  0.00  0.00    +0.000 C 
ATOM     14  C   UNL     1       9.875  -0.580  22.081  0.00  0.00    +0.000 C 
ATOM     15  N   UNL     1       9.593   0.511  23.019  0.00  0.00    +0.000 N 
ATOM     16  C   UNL     1       8.720   0.216  24.146  0.00  0.00    +0.000 C 
ATOM     17  C   UNL     1       9.124  -1.093  24.796  0.00  0.00    +0.000 C 
ATOM     18  C   UNL     1       9.670   1.781  22.561  0.00  0.00    +0.000 C 
ATOM     19  O   UNL     1       8.878   2.193  21.739  0.00  0.00    +0.000 OA
BRANCH  18  20
ATOM     20  C   UNL     1      10.565   2.717  23.339  0.00  0.00    +0.000 C 
ATOM     21 CL   UNL     1       9.599   4.046  24.029  0.00  0.00    +0.000 Cl
ENDBRANCH  18  20
ENDBRANCH   1  12
TORSDOF 3
ENDMDL
MODEL 4
REMARK VINA RESULT:      -6.4      3.240      6.652
REMARK  Name = 
REMARK  3 active torsions:
REMARK  status: ('A' for Active; 'I' for Inactive)
REMARK    1  A    between atoms: C_5  and  S_9
REMARK    2  A    between atoms: S_9  and  N_12
REMARK    3  A    between atoms: C_18  and  C_20
REMARK                            x       y       z     vdW  Elec       q    Type
REMARK                         _______ _______ _______ _____ _____    ______ ____
ROOT
ATOM      1  S   UNL     1       8.640  -3.017  23.754  0.00  0.00    +0.000 S 
ATOM      2  O   UNL     1       8.106  -2.964  22.404  0.00  0.00    +0.000 OA
ATOM      3  O   UNL     1      10.095  -2.953  23.806  0.00  0.00    +0.000 OA
ENDROOT
BRANCH   1   8
ATOM      4  C   UNL     1       4.113  -4.811  23.316  0.00  0.00    +0.000 C 
ATOM      5  C   UNL     1       5.261  -5.658  23.830  0.00  0.00    +0.000 A 
ATOM      6  C   UNL     1       6.361  -5.754  22.613  0.00  0.00    +0.000 A 
ATOM      7  C   UNL     1       7.677  -5.336  23.123  0.00  0.00    +0.000 A 
ATOM      8  C   UNL     1       8.225  -4.672  24.377  0.00  0.00    +0.000 A 
ATOM      9  C   UNL     1       7.216  -4.583  25.491  0.00  0.00    +0.000 A 
ATOM     10  C   UNL     1       7.619  -5.299  26.870  0.00  0.00    +0.000 C 
ATOM     11  C   UNL     1       5.871  -5.327  25.087  0.00  0.00    +0.000 A 
ENDBRANCH   1   8
BRANCH   1  12
ATOM     12  N   UNL     1       8.004  -1.897  24.661  0.00  0.00    +0.000 NA
ATOM     13  C   UNL     1       8.651  -1.344  25.748  0.00  0.00    +0.000 C 
ATOM     14  C   UNL     1       9.671  -0.279  25.401  0.00  0.00    +0.000 C 
ATOM     15  N   UNL     1       9.047   0.698  24.504  0.00  0.00    +0.000 N 
ATOM     16  C   UNL     1       8.236   0.182  23.412  0.00  0.00    +0.000 C 
ATOM     17  C   UNL     1       7.304  -0.903  23.916  0.00  0.00    +0.000 C 
ATOM     18  C   UNL     1       9.638   1.908  24.370  0.00  0.00    +0.000 C 
ATOM     19  O   UNL     1      10.723   2.013  23.839  0.00  0.00    +0.000 OA
BRANCH  18  20
ATOM     20  C   UNL     1       8.757   3.110  24.622  0.00  0.00    +0.000 C 
ATOM     21 CL   UNL     1       7.645   2.773  25.974  0.00  0.00    +0.000 Cl
ENDBRANCH  18  20
ENDBRANCH   1  12
TORSDOF 3
ENDMDL
MODEL 5
REMARK VINA RESULT:      -6.3      2.051      2.448
REMARK  Name = 
REMARK  3 active torsions:
REMARK  status: ('A' for Active; 'I' for Inactive)
REMARK    1  A    between atoms: C_5  and  S_9
REMARK    2  A    between atoms: S_9  and  N_12
REMARK    3  A    between atoms: C_18  and  C_20
REMARK                            x       y       z     vdW  Elec       q    Type
REMARK                         _______ _______ _______ _____ _____    ______ ____
ROOT
ATOM      1  S   UNL     1       8.928  -2.494  23.559  0.00  0.00    +0.000 S 
ATOM      2  O   UNL     1      10.110  -3.198  24.023  0.00  0.00    +0.000 OA
ATOM      3  O   UNL     1       8.170  -3.230  22.556  0.00  0.00    +0.000 OA
ENDROOT
BRANCH   1   8
ATOM      4  C   UNL     1       8.147   1.996  25.330  0.00  0.00    +0.000 C 
ATOM      5  C   UNL     1       9.039   1.756  24.128  0.00  0.00    +0.000 A 
ATOM      6  C   UNL     1      10.286   0.818  24.643  0.00  0.00    +0.000 A 
ATOM      7  C   UNL     1      10.386  -0.366  23.772  0.00  0.00    +0.000 A 
ATOM      8  C   UNL     1       9.546  -1.025  22.688  0.00  0.00    +0.000 A 
ATOM      9  C   UNL     1       8.403  -0.164  22.218  0.00  0.00    +0.000 A 
ATOM     10  C   UNL     1       8.384   0.194  20.654  0.00  0.00    +0.000 C 
ATOM     11  C   UNL     1       8.460   1.267  22.909  0.00  0.00    +0.000 A 
ENDBRANCH   1   8
BRANCH   1  12
ATOM     12  N   UNL     1       8.000  -2.085  24.764  0.00  0.00    +0.000 NA
ATOM     13  C   UNL     1       6.625  -2.205  24.738  0.00  0.00    +0.000 C 
ATOM     14  C   UNL     1       6.107  -3.604  25.003  0.00  0.00    +0.000 C 
ATOM     15  N   UNL     1       6.737  -4.118  26.223  0.00  0.00    +0.000 N 
ATOM     16  C   UNL     1       8.168  -3.904  26.378  0.00  0.00    +0.000 C 
ATOM     17  C   UNL     1       8.527  -2.472  26.032  0.00  0.00    +0.000 C 
ATOM     18  C   UNL     1       6.158  -5.170  26.845  0.00  0.00    +0.000 C 
ATOM     19  O   UNL     1       6.130  -6.263  26.319  0.00  0.00    +0.000 OA
BRANCH  18  20
ATOM     20  C   UNL     1       5.844  -4.986  28.311  0.00  0.00    +0.000 C 
ATOM     21 CL   UNL     1       6.264  -6.467  29.210  0.00  0.00    +0.000 Cl
ENDBRANCH  18  20
ENDBRANCH   1  12
TORSDOF 3
ENDMDL
MODEL 6
REMARK VINA RESULT:      -6.3      2.297      3.141
REMARK  Name = 
REMARK  3 active torsions:
REMARK  status: ('A' for Active; 'I' for Inactive)
REMARK    1  A    between atoms: C_5  and  S_9
REMARK    2  A    between atoms: S_9  and  N_12
REMARK    3  A    between atoms: C_18  and  C_20
REMARK                            x       y       z     vdW  Elec       q    Type
REMARK                         _______ _______ _______ _____ _____    ______ ____
ROOT
ATOM      1  S   UNL     1       9.805   0.012  23.829  0.00  0.00    +0.000 S 
ATOM      2  O   UNL     1       8.627  -0.018  24.678  0.00  0.00    +0.000 OA
ATOM      3  O   UNL     1      11.002   0.481  24.513  0.00  0.00    +0.000 OA
ENDROOT
BRANCH   1   8
ATOM      4  C   UNL     1       8.572   4.568  25.104  0.00  0.00    +0.000 C 
ATOM      5  C   UNL     1       8.839   4.188  23.662  0.00  0.00    +0.000 A 
ATOM      6  C   UNL     1      10.405   3.696  23.583  0.00  0.00    +0.000 A 
ATOM      7  C   UNL     1      10.456   2.363  22.961  0.00  0.00    +0.000 A 
ATOM      8  C   UNL     1       9.465   1.277  22.570  0.00  0.00    +0.000 A 
ATOM      9  C   UNL     1       8.031   1.729  22.643  0.00  0.00    +0.000 A 
ATOM     10  C   UNL     1       7.187   1.631  21.281  0.00  0.00    +0.000 C 
ATOM     11  C   UNL     1       7.950   3.277  22.999  0.00  0.00    +0.000 A 
ENDBRANCH   1   8
BRANCH   1  12
ATOM     12  N   UNL     1      10.062  -1.391  23.161  0.00  0.00    +0.000 NA
ATOM     13  C   UNL     1      10.070  -2.577  23.868  0.00  0.00    +0.000 C 
ATOM     14  C   UNL     1       8.698  -3.138  24.178  0.00  0.00    +0.000 C 
ATOM     15  N   UNL     1       7.912  -3.175  22.941  0.00  0.00    +0.000 N 
ATOM     16  C   UNL     1       7.967  -2.005  22.078  0.00  0.00    +0.000 C 
ATOM     17  C   UNL     1       9.401  -1.544  21.907  0.00  0.00    +0.000 C 
ATOM     18  C   UNL     1       6.818  -3.969  22.905  0.00  0.00    +0.000 C 
ATOM     19  O   UNL     1       5.849  -3.722  23.592  0.00  0.00    +0.000 OA
BRANCH  18  20
ATOM     20  C   UNL     1       6.752  -4.961  21.767  0.00  0.00    +0.000 C 
ATOM     21 CL   UNL     1       5.363  -6.054  21.996  0.00  0.00    +0.000 Cl
ENDBRANCH  18  20
ENDBRANCH   1  12
TORSDOF 3
ENDMDL
MODEL 7
REMARK VINA RESULT:      -6.2      3.282      6.921
REMARK  Name = 
REMARK  3 active torsions:
REMARK  status: ('A' for Active; 'I' for Inactive)
REMARK    1  A    between atoms: C_5  and  S_9
REMARK    2  A    between atoms: S_9  and  N_12
REMARK    3  A    between atoms: C_18  and  C_20
REMARK                            x       y       z     vdW  Elec       q    Type
REMARK                         _______ _______ _______ _____ _____    ______ ____
ROOT
ATOM      1  S   UNL     1       5.850  -3.576  23.134  0.00  0.00    +0.000 S 
ATOM      2  O   UNL     1       5.444  -2.741  24.250  0.00  0.00    +0.000 OA
ATOM      3  O   UNL     1       4.734  -4.048  22.325  0.00  0.00    +0.000 OA
ENDROOT
BRANCH   1   8
ATOM      4  C   UNL     1       3.320  -6.182  26.407  0.00  0.00    +0.000 C 
ATOM      5  C   UNL     1       4.646  -6.666  25.854  0.00  0.00    +0.000 A 
ATOM      6  C   UNL     1       4.442  -6.861  24.236  0.00  0.00    +0.000 A 
ATOM      7  C   UNL     1       5.491  -6.110  23.527  0.00  0.00    +0.000 A 
ATOM      8  C   UNL     1       6.552  -5.077  23.878  0.00  0.00    +0.000 A 
ATOM      9  C   UNL     1       6.737  -4.899  25.362  0.00  0.00    +0.000 A 
ATOM     10  C   UNL     1       8.212  -5.179  25.929  0.00  0.00    +0.000 C 
ATOM     11  C   UNL     1       5.845  -5.940  26.166  0.00  0.00    +0.000 A 
ENDBRANCH   1   8
BRANCH   1  12
ATOM     12  N   UNL     1       6.915  -2.844  22.233  0.00  0.00    +0.000 NA
ATOM     13  C   UNL     1       6.721  -1.586  21.699  0.00  0.00    +0.000 C 
ATOM     14  C   UNL     1       6.968  -0.445  22.665  0.00  0.00    +0.000 C 
ATOM     15  N   UNL     1       8.274  -0.639  23.302  0.00  0.00    +0.000 N 
ATOM     16  C   UNL     1       8.600  -1.979  23.767  0.00  0.00    +0.000 C 
ATOM     17  C   UNL     1       8.252  -3.004  22.705  0.00  0.00    +0.000 C 
ATOM     18  C   UNL     1       8.854   0.425  23.901  0.00  0.00    +0.000 C 
ATOM     19  O   UNL     1       8.367   0.918  24.897  0.00  0.00    +0.000 OA
BRANCH  18  20
ATOM     20  C   UNL     1      10.263   0.751  23.462  0.00  0.00    +0.000 C 
ATOM     21 CL   UNL     1      10.221   1.801  22.022  0.00  0.00    +0.000 Cl
ENDBRANCH  18  20
ENDBRANCH   1  12
TORSDOF 3
ENDMDL
MODEL 8
REMARK VINA RESULT:      -6.1      3.154      6.669
REMARK  Name = 
REMARK  3 active torsions:
REMARK  status: ('A' for Active; 'I' for Inactive)
REMARK    1  A    between atoms: C_5  and  S_9
REMARK    2  A    between atoms: S_9  and  N_12
REMARK    3  A    between atoms: C_18  and  C_20
REMARK                            x       y       z     vdW  Elec       q    Type
REMARK                         _______ _______ _______ _____ _____    ______ ____
ROOT
ATOM      1  S   UNL     1       8.692  -3.000  24.338  0.00  0.00    +0.000 S 
ATOM      2  O   UNL     1      10.044  -3.105  23.818  0.00  0.00    +0.000 OA
ATOM      3  O   UNL     1       8.604  -2.235  25.575  0.00  0.00    +0.000 OA
ENDROOT
BRANCH   1   8
ATOM      4  C   UNL     1       4.293  -4.787  23.175  0.00  0.00    +0.000 C 
ATOM      5  C   UNL     1       5.369  -5.656  23.794  0.00  0.00    +0.000 A 
ATOM      6  C   UNL     1       6.628  -5.677  22.738  0.00  0.00    +0.000 A 
ATOM      7  C   UNL     1       7.855  -5.282  23.449  0.00  0.00    +0.000 A 
ATOM      8  C   UNL     1       8.216  -4.690  24.803  0.00  0.00    +0.000 A 
ATOM      9  C   UNL     1       7.062  -4.671  25.769  0.00  0.00    +0.000 A 
ATOM     10  C   UNL     1       7.280  -5.464  27.147  0.00  0.00    +0.000 C 
ATOM     11  C   UNL     1       5.795  -5.396  25.140  0.00  0.00    +0.000 A 
ENDBRANCH   1   8
BRANCH   1  12
ATOM     12  N   UNL     1       7.710  -2.416  23.254  0.00  0.00    +0.000 NA
ATOM     13  C   UNL     1       6.474  -1.883  23.560  0.00  0.00    +0.000 C 
ATOM     14  C   UNL     1       6.510  -0.461  24.082  0.00  0.00    +0.000 C 
ATOM     15  N   UNL     1       7.315   0.357  23.169  0.00  0.00    +0.000 N 
ATOM     16  C   UNL     1       8.571  -0.205  22.698  0.00  0.00    +0.000 C 
ATOM     17  C   UNL     1       8.373  -1.642  22.257  0.00  0.00    +0.000 C 
ATOM     18  C   UNL     1       7.176   1.701  23.228  0.00  0.00    +0.000 C 
ATOM     19  O   UNL     1       7.536   2.319  24.208  0.00  0.00    +0.000 OA
BRANCH  18  20
ATOM     20  C   UNL     1       6.853   2.394  21.926  0.00  0.00    +0.000 C 
ATOM     21 CL   UNL     1       7.179   4.141  22.072  0.00  0.00    +0.000 Cl
ENDBRANCH  18  20
ENDBRANCH   1  12
TORSDOF 3
ENDMDL
MODEL 9
REMARK VINA RESULT:      -6.0      1.478      1.686
REMARK  Name = 
REMARK  3 active torsions:
REMARK  status: ('A' for Active; 'I' for Inactive)
REMARK    1  A    between atoms: C_5  and  S_9
REMARK    2  A    between atoms: S_9  and  N_12
REMARK    3  A    between atoms: C_18  and  C_20
REMARK                            x       y       z     vdW  Elec       q    Type
REMARK                         _______ _______ _______ _____ _____    ______ ____
ROOT
ATOM      1  S   UNL     1       8.846  -1.217  23.739  0.00  0.00    +0.000 S 
ATOM      2  O   UNL     1       7.519  -0.749  24.099  0.00  0.00    +0.000 OA
ATOM      3  O   UNL     1       9.859  -0.920  24.744  0.00  0.00    +0.000 OA
ENDROOT
BRANCH   1   8
ATOM      4  C   UNL     1       8.033   3.601  23.567  0.00  0.00    +0.000 C 
ATOM      5  C   UNL     1       8.832   2.888  22.495  0.00  0.00    +0.000 A 
ATOM      6  C   UNL     1      10.154   2.251  23.234  0.00  0.00    +0.000 A 
ATOM      7  C   UNL     1      10.230   0.814  22.923  0.00  0.00    +0.000 A 
ATOM      8  C   UNL     1       9.331  -0.237  22.289  0.00  0.00    +0.000 A 
ATOM      9  C   UNL     1       8.120   0.348  21.612  0.00  0.00    +0.000 A 
ATOM     10  C   UNL     1       7.958   0.028  20.048  0.00  0.00    +0.000 C 
ATOM     11  C   UNL     1       8.175   1.937  21.644  0.00  0.00    +0.000 A 
ENDBRANCH   1   8
BRANCH   1  12
ATOM     12  N   UNL     1       8.835  -2.755  23.402  0.00  0.00    +0.000 NA
ATOM     13  C   UNL     1       9.029  -3.741  24.348  0.00  0.00    +0.000 C 
ATOM     14  C   UNL     1       7.807  -4.064  25.184  0.00  0.00    +0.000 C 
ATOM     15  N   UNL     1       6.671  -4.298  24.288  0.00  0.00    +0.000 N 
ATOM     16  C   UNL     1       6.487  -3.370  23.183  0.00  0.00    +0.000 C 
ATOM     17  C   UNL     1       7.808  -3.119  22.482  0.00  0.00    +0.000 C 
ATOM     18  C   UNL     1       5.596  -4.956  24.781  0.00  0.00    +0.000 C 
ATOM     19  O   UNL     1       4.902  -4.453  25.640  0.00  0.00    +0.000 OA
BRANCH  18  20
ATOM     20  C   UNL     1       5.143  -6.168  24.003  0.00  0.00    +0.000 C 
ATOM     21 CL   UNL     1       4.125  -7.205  25.035  0.00  0.00    +0.000 Cl
ENDBRANCH  18  20
ENDBRANCH   1  12
TORSDOF 3
ENDMDL
