MODEL 1
REMARK VINA RESULT:      -6.4      0.000      0.000
REMARK  Name = 
REMARK  1 active torsions:
REMARK  status: ('A' for Active; 'I' for Inactive)
REMARK    1  A    between atoms: C_2  and  C_10
REMARK                            x       y       z     vdW  Elec       q    Type
REMARK                         _______ _______ _______ _____ _____    ______ ____
ROOT
ATOM      1  O   UNL     1      10.467  -2.370  22.715  0.00  0.00    +0.000 OA
ATOM      2  C   UNL     1       9.314  -1.916  22.974  0.00  0.00    +0.000 C 
ATOM      3  N   UNL     1       9.281  -0.599  23.280  0.00  0.00    +0.000 N 
ATOM      4  C   UNL     1       8.212  -0.081  24.135  0.00  0.00    +0.000 C 
ATOM      5  C   UNL     1       6.978   0.099  23.237  0.00  0.00    +0.000 C 
ATOM      6  C   UNL     1       7.265   1.212  22.244  0.00  0.00    +0.000 C 
ATOM      7  C   UNL     1       7.668   0.663  20.903  0.00  0.00    +0.000 C 
ATOM      8  C   UNL     1       8.999  -0.040  20.941  0.00  0.00    +0.000 C 
ATOM      9  C   UNL     1       9.764   0.294  22.210  0.00  0.00    +0.000 C 
ENDROOT
BRANCH   2  10
ATOM     10  C   UNL     1       8.311  -2.636  23.377  0.00  0.00    +0.000 A 
ATOM     11  C   UNL     1       8.551  -3.693  24.577  0.00  0.00    +0.000 A 
ATOM     12  C   UNL     1       7.668  -4.895  24.373  0.00  0.00    +0.000 A 
ATOM     13  C   UNL     1       6.623  -5.303  23.380  0.00  0.00    +0.000 A 
ATOM     14  O   UNL     1       5.252  -5.402  23.894  0.00  0.00    +0.000 OA
ATOM     15  C   UNL     1       4.516  -4.325  23.253  0.00  0.00    +0.000 C 
ATOM     16  O   UNL     1       5.192  -4.007  21.999  0.00  0.00    +0.000 OA
ATOM     17  C   UNL     1       6.554  -4.279  22.137  0.00  0.00    +0.000 A 
ATOM     18  C   UNL     1       7.533  -3.211  22.258  0.00  0.00    +0.000 A 
ENDBRANCH   2  10
TORSDOF 1
ENDMDL
MODEL 2
REMARK VINA RESULT:      -6.2      1.969      2.573
REMARK  Name = 
REMARK  1 active torsions:
REMARK  status: ('A' for Active; 'I' for Inactive)
REMARK    1  A    between atoms: C_2  and  C_10
REMARK                            x       y       z     vdW  Elec       q    Type
REMARK                         _______ _______ _______ _____ _____    ______ ____
ROOT
ATOM      1  O   UNL     1      10.617   0.230  25.002  0.00  0.00    +0.000 OA
ATOM      2  C   UNL     1       9.507  -0.124  24.507  0.00  0.00    +0.000 C 
ATOM      3  N   UNL     1       8.782   0.882  23.969  0.00  0.00    +0.000 N 
ATOM      4  C   UNL     1       7.323   0.771  23.905  0.00  0.00    +0.000 C 
ATOM      5  C   UNL     1       7.002  -0.109  22.687  0.00  0.00    +0.000 C 
ATOM      6  C   UNL     1       7.395   0.649  21.431  0.00  0.00    +0.000 C 
ATOM      7  C   UNL     1       8.730   0.193  20.909  0.00  0.00    +0.000 C 
ATOM      8  C   UNL     1       9.866   0.552  21.830  0.00  0.00    +0.000 C 
ATOM      9  C   UNL     1       9.440   1.589  22.854  0.00  0.00    +0.000 C 
ENDROOT
BRANCH   2  10
ATOM     10  C   UNL     1       8.859  -1.199  24.841  0.00  0.00    +0.000 A 
ATOM     11  C   UNL     1       8.455  -1.406  26.393  0.00  0.00    +0.000 A 
ATOM     12  C   UNL     1       8.486  -2.873  26.730  0.00  0.00    +0.000 A 
ATOM     13  C   UNL     1       8.748  -4.142  25.975  0.00  0.00    +0.000 A 
ATOM     14  O   UNL     1       7.598  -5.039  25.810  0.00  0.00    +0.000 OA
ATOM     15  C   UNL     1       7.291  -5.021  24.390  0.00  0.00    +0.000 C 
ATOM     16  O   UNL     1       8.512  -4.666  23.673  0.00  0.00    +0.000 OA
ATOM     17  C   UNL     1       9.294  -3.846  24.488  0.00  0.00    +0.000 A 
ATOM     18  C   UNL     1       9.425  -2.421  24.230  0.00  0.00    +0.000 A 
ENDBRANCH   2  10
TORSDOF 1
ENDMDL
MODEL 3
REMARK VINA RESULT:      -6.1      2.524      5.642
REMARK  Name = 
REMARK  1 active torsions:
REMARK  status: ('A' for Active; 'I' for Inactive)
REMARK    1  A    between atoms: C_2  and  C_10
REMARK                            x       y       z     vdW  Elec       q    Type
REMARK                         _______ _______ _______ _____ _____    ______ ____
ROOT
ATOM      1  O   UNL     1      10.471  -2.371  22.729  0.00  0.00    +0.000 OA
ATOM      2  C   UNL     1       9.339  -1.826  22.883  0.00  0.00    +0.000 C 
ATOM      3  N   UNL     1       8.284  -2.629  22.616  0.00  0.00    +0.000 N 
ATOM      4  C   UNL     1       7.017  -2.039  22.182  0.00  0.00    +0.000 C 
ATOM      5  C   UNL     1       6.309  -1.535  23.449  0.00  0.00    +0.000 C 
ATOM      6  C   UNL     1       5.918  -2.738  24.290  0.00  0.00    +0.000 C 
ATOM      7  C   UNL     1       6.896  -2.968  25.409  0.00  0.00    +0.000 C 
ATOM      8  C   UNL     1       8.253  -3.393  24.913  0.00  0.00    +0.000 C 
ATOM      9  C   UNL     1       8.197  -3.835  23.461  0.00  0.00    +0.000 C 
ENDROOT
BRANCH   2  10
ATOM     10  C   UNL     1       9.125  -0.546  22.844  0.00  0.00    +0.000 A 
ATOM     11  C   UNL     1       9.687   0.293  21.581  0.00  0.00    +0.000 A 
ATOM     12  C   UNL     1      10.079   1.676  22.029  0.00  0.00    +0.000 A 
ATOM     13  C   UNL     1      10.025   2.442  23.315  0.00  0.00    +0.000 A 
ATOM     14  O   UNL     1       9.099   3.580  23.346  0.00  0.00    +0.000 OA
ATOM     15  C   UNL     1       8.050   3.203  24.279  0.00  0.00    +0.000 C 
ATOM     16  O   UNL     1       8.607   2.222  25.206  0.00  0.00    +0.000 OA
ATOM     17  C   UNL     1       9.604   1.498  24.552  0.00  0.00    +0.000 A 
ATOM     18  C   UNL     1       9.395   0.120  24.137  0.00  0.00    +0.000 A 
ENDBRANCH   2  10
TORSDOF 1
ENDMDL
MODEL 4
REMARK VINA RESULT:      -6.1      2.070      5.449
REMARK  Name = 
REMARK  1 active torsions:
REMARK  status: ('A' for Active; 'I' for Inactive)
REMARK    1  A    between atoms: C_2  and  C_10
REMARK                            x       y       z     vdW  Elec       q    Type
REMARK                         _______ _______ _______ _____ _____    ______ ____
ROOT
ATOM      1  O   UNL     1       7.291  -4.409  21.993  0.00  0.00    +0.000 OA
ATOM      2  C   UNL     1       7.302  -3.534  22.908  0.00  0.00    +0.000 C 
ATOM      3  N   UNL     1       6.458  -3.782  23.936  0.00  0.00    +0.000 N 
ATOM      4  C   UNL     1       5.928  -2.667  24.722  0.00  0.00    +0.000 C 
ATOM      5  C   UNL     1       7.026  -2.272  25.721  0.00  0.00    +0.000 C 
ATOM      6  C   UNL     1       7.202  -3.407  26.715  0.00  0.00    +0.000 C 
ATOM      7  C   UNL     1       8.386  -4.266  26.363  0.00  0.00    +0.000 C 
ATOM      8  C   UNL     1       8.185  -5.032  25.082  0.00  0.00    +0.000 C 
ATOM      9  C   UNL     1       6.726  -5.037  24.664  0.00  0.00    +0.000 C 
ENDROOT
BRANCH   2  10
ATOM     10  C   UNL     1       7.684  -2.304  22.748  0.00  0.00    +0.000 A 
ATOM     11  C   UNL     1       7.011  -1.434  21.562  0.00  0.00    +0.000 A 
ATOM     12  C   UNL     1       8.023  -0.463  21.014  0.00  0.00    +0.000 A 
ATOM     13  C   UNL     1       9.440  -0.096  21.333  0.00  0.00    +0.000 A 
ATOM     14  O   UNL     1       9.649   1.253  21.872  0.00  0.00    +0.000 OA
ATOM     15  C   UNL     1      10.072   1.060  23.249  0.00  0.00    +0.000 C 
ATOM     16  O   UNL     1      10.681  -0.262  23.350  0.00  0.00    +0.000 OA
ATOM     17  C   UNL     1      10.087  -1.106  22.410  0.00  0.00    +0.000 A 
ATOM     18  C   UNL     1       9.154  -2.148  22.807  0.00  0.00    +0.000 A 
ENDBRANCH   2  10
TORSDOF 1
ENDMDL
MODEL 5
REMARK VINA RESULT:      -6.0      2.163      5.227
REMARK  Name = 
REMARK  1 active torsions:
REMARK  status: ('A' for Active; 'I' for Inactive)
REMARK    1  A    between atoms: C_2  and  C_10
REMARK                            x       y       z     vdW  Elec       q    Type
REMARK                         _______ _______ _______ _____ _____    ______ ____
ROOT
ATOM      1  O   UNL     1       7.836  -3.397  25.974  0.00  0.00    +0.000 OA
ATOM      2  C   UNL     1       7.691  -3.591  24.731  0.00  0.00    +0.000 C 
ATOM      3  N   UNL     1       7.358  -4.857  24.392  0.00  0.00    +0.000 N 
ATOM      4  C   UNL     1       7.720  -5.372  23.070  0.00  0.00    +0.000 C 
ATOM      5  C   UNL     1       6.669  -4.835  22.086  0.00  0.00    +0.000 C 
ATOM      6  C   UNL     1       5.334  -5.482  22.410  0.00  0.00    +0.000 C 
ATOM      7  C   UNL     1       4.462  -4.565  23.224  0.00  0.00    +0.000 C 
ATOM      8  C   UNL     1       5.007  -4.322  24.606  0.00  0.00    +0.000 C 
ATOM      9  C   UNL     1       6.083  -5.333  24.961  0.00  0.00    +0.000 C 
ENDROOT
BRANCH   2  10
ATOM     10  C   UNL     1       8.225  -2.857  23.802  0.00  0.00    +0.000 A 
ATOM     11  C   UNL     1       9.818  -2.585  23.853  0.00  0.00    +0.000 A 
ATOM     12  C   UNL     1      10.112  -1.213  23.310  0.00  0.00    +0.000 A 
ATOM     13  C   UNL     1       9.306  -0.100  22.710  0.00  0.00    +0.000 A 
ATOM     14  O   UNL     1       9.551   0.178  21.290  0.00  0.00    +0.000 OA
ATOM     15  C   UNL     1       8.330  -0.208  20.602  0.00  0.00    +0.000 C 
ATOM     16  O   UNL     1       7.231  -0.121  21.558  0.00  0.00    +0.000 OA
ATOM     17  C   UNL     1       7.723  -0.379  22.838  0.00  0.00    +0.000 A 
ATOM     18  C   UNL     1       7.445  -1.632  23.522  0.00  0.00    +0.000 A 
ENDBRANCH   2  10
TORSDOF 1
ENDMDL
MODEL 6
REMARK VINA RESULT:      -6.0      1.759      2.605
REMARK  Name = 
REMARK  1 active torsions:
REMARK  status: ('A' for Active; 'I' for Inactive)
REMARK    1  A    between atoms: C_2  and  C_10
REMARK                            x       y       z     vdW  Elec       q    Type
REMARK                         _______ _______ _______ _____ _____    ______ ____
ROOT
ATOM      1  O   UNL     1       7.542  -1.944  25.710  0.00  0.00    +0.000 OA
ATOM      2  C   UNL     1       7.484  -1.888  24.447  0.00  0.00    +0.000 C 
ATOM      3  N   UNL     1       7.761  -0.673  23.922  0.00  0.00    +0.000 N 
ATOM      4  C   UNL     1       7.191  -0.295  22.628  0.00  0.00    +0.000 C 
ATOM      5  C   UNL     1       8.064  -0.957  21.551  0.00  0.00    +0.000 C 
ATOM      6  C   UNL     1       9.438  -0.309  21.582  0.00  0.00    +0.000 C 
ATOM      7  C   UNL     1      10.427  -1.152  22.338  0.00  0.00    +0.000 C 
ATOM      8  C   UNL     1      10.114  -1.234  23.809  0.00  0.00    +0.000 C 
ATOM      9  C   UNL     1       9.115  -0.167  24.221  0.00  0.00    +0.000 C 
ENDROOT
BRANCH   2  10
ATOM     10  C   UNL     1       6.802  -2.705  23.703  0.00  0.00    +0.000 A 
ATOM     11  C   UNL     1       5.224  -2.894  24.007  0.00  0.00    +0.000 A 
ATOM     12  C   UNL     1       4.817  -4.308  23.690  0.00  0.00    +0.000 A 
ATOM     13  C   UNL     1       5.497  -5.522  23.134  0.00  0.00    +0.000 A 
ATOM     14  O   UNL     1       5.044  -5.961  21.809  0.00  0.00    +0.000 OA
ATOM     15  C   UNL     1       6.165  -5.720  20.915  0.00  0.00    +0.000 C 
ATOM     16  O   UNL     1       7.386  -5.740  21.713  0.00  0.00    +0.000 OA
ATOM     17  C   UNL     1       7.089  -5.304  23.006  0.00  0.00    +0.000 A 
ATOM     18  C   UNL     1       7.497  -3.990  23.477  0.00  0.00    +0.000 A 
ENDBRANCH   2  10
TORSDOF 1
ENDMDL
MODEL 7
REMARK VINA RESULT:      -5.9      2.577      4.153
REMARK  Name = 
REMARK  1 active torsions:
REMARK  status: ('A' for Active; 'I' for Inactive)
REMARK    1  A    between atoms: C_2  and  C_10
REMARK                            x       y       z     vdW  Elec       q    Type
REMARK                         _______ _______ _______ _____ _____    ______ ____
ROOT
ATOM      1  O   UNL     1       9.298  -2.373  22.777  0.00  0.00    +0.000 OA
ATOM      2  C   UNL     1       8.613  -1.317  22.917  0.00  0.00    +0.000 C 
ATOM      3  N   UNL     1       8.618  -0.803  24.168  0.00  0.00    +0.000 N 
ATOM      4  C   UNL     1       7.484   0.001  24.626  0.00  0.00    +0.000 C 
ATOM      5  C   UNL     1       7.681   1.410  24.047  0.00  0.00    +0.000 C 
ATOM      6  C   UNL     1       8.898   2.034  24.708  0.00  0.00    +0.000 C 
ATOM      7  C   UNL     1      10.113   1.934  23.826  0.00  0.00    +0.000 C 
ATOM      8  C   UNL     1      10.580   0.515  23.642  0.00  0.00    +0.000 C 
ATOM      9  C   UNL     1       9.950  -0.411  24.668  0.00  0.00    +0.000 C 
ENDROOT
BRANCH   2  10
ATOM     10  C   UNL     1       7.630  -0.967  22.145  0.00  0.00    +0.000 A 
ATOM     11  C   UNL     1       6.464  -2.046  21.841  0.00  0.00    +0.000 A 
ATOM     12  C   UNL     1       5.936  -1.838  20.446  0.00  0.00    +0.000 A 
ATOM     13  C   UNL     1       6.197  -0.868  19.334  0.00  0.00    +0.000 A 
ATOM     14  O   UNL     1       5.097   0.047  19.008  0.00  0.00    +0.000 OA
ATOM     15  C   UNL     1       5.561   1.368  19.399  0.00  0.00    +0.000 C 
ATOM     16  O   UNL     1       7.020   1.358  19.364  0.00  0.00    +0.000 OA
ATOM     17  C   UNL     1       7.471   0.068  19.650  0.00  0.00    +0.000 A 
ATOM     18  C   UNL     1       8.082  -0.258  20.928  0.00  0.00    +0.000 A 
ENDBRANCH   2  10
TORSDOF 1
ENDMDL
MODEL 8
REMARK VINA RESULT:      -5.9      1.888      3.055
REMARK  Name = 
REMARK  1 active torsions:
REMARK  status: ('A' for Active; 'I' for Inactive)
REMARK    1  A    between atoms: C_2  and  C_10
REMARK                            x       y       z     vdW  Elec       q    Type
REMARK                         _______ _______ _______ _____ _____    ______ ____
ROOT
ATOM      1  O   UNL     1       6.555  -1.700  21.548  0.00  0.00    +0.000 OA
ATOM      2  C   UNL     1       7.521  -1.840  22.356  0.00  0.00    +0.000 C 
ATOM      3  N   UNL     1       8.644  -1.168  22.015  0.00  0.00    +0.000 N 
ATOM      4  C   UNL     1       9.947  -1.660  22.463  0.00  0.00    +0.000 C 
ATOM      5  C   UNL     1      10.115  -1.198  23.919  0.00  0.00    +0.000 C 
ATOM      6  C   UNL     1      10.239   0.316  23.930  0.00  0.00    +0.000 C 
ATOM      7  C   UNL     1       8.934   0.972  24.291  0.00  0.00    +0.000 C 
ATOM      8  C   UNL     1       7.878   0.777  23.235  0.00  0.00    +0.000 C 
ATOM      9  C   UNL     1       8.484   0.296  21.929  0.00  0.00    +0.000 C 
ENDROOT
BRANCH   2  10
ATOM     10  C   UNL     1       7.663  -2.841  23.170  0.00  0.00    +0.000 A 
ATOM     11  C   UNL     1       7.456  -4.339  22.596  0.00  0.00    +0.000 A 
ATOM     12  C   UNL     1       6.870  -5.214  23.672  0.00  0.00    +0.000 A 
ATOM     13  C   UNL     1       6.492  -5.037  25.111  0.00  0.00    +0.000 A 
ATOM     14  O   UNL     1       7.299  -5.784  26.083  0.00  0.00    +0.000 OA
ATOM     15  C   UNL     1       8.041  -4.779  26.827  0.00  0.00    +0.000 C 
ATOM     16  O   UNL     1       7.290  -3.529  26.761  0.00  0.00    +0.000 OA
ATOM     17  C   UNL     1       6.577  -3.492  25.562  0.00  0.00    +0.000 A 
ATOM     18  C   UNL     1       6.980  -2.627  24.465  0.00  0.00    +0.000 A 
ENDBRANCH   2  10
TORSDOF 1
ENDMDL
MODEL 9
REMARK VINA RESULT:      -5.8      2.253      3.330
REMARK  Name = 
REMARK  1 active torsions:
REMARK  status: ('A' for Active; 'I' for Inactive)
REMARK    1  A    between atoms: C_2  and  C_10
REMARK                            x       y       z     vdW  Elec       q    Type
REMARK                         _______ _______ _______ _____ _____    ______ ____
ROOT
ATOM      1  O   UNL     1       6.263  -1.648  20.863  0.00  0.00    +0.000 OA
ATOM      2  C   UNL     1       7.265  -1.297  21.552  0.00  0.00    +0.000 C 
ATOM      3  N   UNL     1       8.249  -0.692  20.850  0.00  0.00    +0.000 N 
ATOM      4  C   UNL     1       9.631  -0.765  21.329  0.00  0.00    +0.000 C 
ATOM      5  C   UNL     1       9.770   0.295  22.432  0.00  0.00    +0.000 C 
ATOM      6  C   UNL     1       9.644   1.669  21.797  0.00  0.00    +0.000 C 
ATOM      7  C   UNL     1       8.262   2.234  21.980  0.00  0.00    +0.000 C 
ATOM      8  C   UNL     1       7.216   1.466  21.216  0.00  0.00    +0.000 C 
ATOM      9  C   UNL     1       7.848   0.557  20.176  0.00  0.00    +0.000 C 
ENDROOT
BRANCH   2  10
ATOM     10  C   UNL     1       7.598  -1.823  22.692  0.00  0.00    +0.000 A 
ATOM     11  C   UNL     1       7.689  -3.434  22.802  0.00  0.00    +0.000 A 
ATOM     12  C   UNL     1       7.282  -3.868  24.185  0.00  0.00    +0.000 A 
ATOM     13  C   UNL     1       6.874  -3.176  25.450  0.00  0.00    +0.000 A 
ATOM     14  O   UNL     1       7.809  -3.291  26.575  0.00  0.00    +0.000 OA
ATOM     15  C   UNL     1       8.339  -1.952  26.779  0.00  0.00    +0.000 C 
ATOM     16  O   UNL     1       7.359  -1.000  26.266  0.00  0.00    +0.000 OA
ATOM     17  C   UNL     1       6.655  -1.596  25.218  0.00  0.00    +0.000 A 
ATOM     18  C   UNL     1       6.884  -1.213  23.835  0.00  0.00    +0.000 A 
ENDBRANCH   2  10
TORSDOF 1
ENDMDL
