MODEL 1
REMARK VINA RESULT:      -5.9      0.000      0.000
REMARK  Name = 
REMARK  3 active torsions:
REMARK  status: ('A' for Active; 'I' for Inactive)
REMARK    1  A    between atoms: C_2  and  C_3
REMARK    2  A    between atoms: N_8  and  S_11
REMARK    3  A    between atoms: S_11  and  C_14
REMARK                            x       y       z     vdW  Elec       q    Type
REMARK                         _______ _______ _______ _____ _____    ______ ____
ROOT
ATOM      1  C   UNL     1      10.147   1.246  22.674  0.00  0.00    +0.000 C 
ATOM      2  O   UNL     1       9.752   1.502  21.557  0.00  0.00    +0.000 OA
ATOM      3  N   UNL     1      10.303  -0.026  23.107  0.00  0.00    +0.000 N 
ATOM      4  C   UNL     1       9.878  -0.330  24.486  0.00  0.00    +0.000 C 
ATOM      5  C   UNL     1       8.460  -0.854  24.441  0.00  0.00    +0.000 C 
ATOM      6  N   UNL     1       8.236  -1.826  23.482  0.00  0.00    +0.000 NA
ATOM      7  C   UNL     1       8.667  -1.549  22.193  0.00  0.00    +0.000 C 
ATOM      8  C   UNL     1      10.126  -1.119  22.138  0.00  0.00    +0.000 C 
ENDROOT
BRANCH   6   9
ATOM      9  S   UNL     1       8.446  -3.348  23.969  0.00  0.00    +0.000 S 
ATOM     10  O   UNL     1       9.863  -3.570  24.226  0.00  0.00    +0.000 OA
ATOM     11  O   UNL     1       7.878  -4.258  22.999  0.00  0.00    +0.000 OA
BRANCH   9  12
ATOM     12  C   UNL     1       7.599  -3.630  25.522  0.00  0.00    +0.000 C 
ATOM     13  C   UNL     1       6.345  -4.447  25.257  0.00  0.00    +0.000 C 
ATOM     14  C   UNL     1       6.334  -5.580  26.283  0.00  0.00    +0.000 C 
ATOM     15  C   UNL     1       7.401  -5.554  27.272  0.00  0.00    +0.000 C 
ATOM     16  S   UNL     1       8.514  -4.547  26.517  0.00  0.00    +0.000 S 
ENDBRANCH   9  12
ENDBRANCH   6   9
BRANCH   1  18
ATOM     17 CL   UNL     1      11.301   3.580  23.374  0.00  0.00    +0.000 Cl
ATOM     18  C   UNL     1      10.116   2.304  23.764  0.00  0.00    +0.000 C 
ENDBRANCH   1  18
TORSDOF 3
ENDMDL
MODEL 2
REMARK VINA RESULT:      -5.8      2.749      3.404
REMARK  Name = 
REMARK  3 active torsions:
REMARK  status: ('A' for Active; 'I' for Inactive)
REMARK    1  A    between atoms: C_2  and  C_3
REMARK    2  A    between atoms: N_8  and  S_11
REMARK    3  A    between atoms: S_11  and  C_14
REMARK                            x       y       z     vdW  Elec       q    Type
REMARK                         _______ _______ _______ _____ _____    ______ ____
ROOT
ATOM      1  C   UNL     1       7.221  -0.340  20.365  0.00  0.00    +0.000 C 
ATOM      2  O   UNL     1       8.164  -0.031  19.670  0.00  0.00    +0.000 OA
ATOM      3  N   UNL     1       7.358  -0.608  21.684  0.00  0.00    +0.000 N 
ATOM      4  C   UNL     1       6.594  -1.746  22.227  0.00  0.00    +0.000 C 
ATOM      5  C   UNL     1       7.485  -2.969  22.209  0.00  0.00    +0.000 C 
ATOM      6  N   UNL     1       8.756  -2.762  22.715  0.00  0.00    +0.000 NA
ATOM      7  C   UNL     1       9.458  -1.670  22.224  0.00  0.00    +0.000 C 
ATOM      8  C   UNL     1       8.667  -0.372  22.311  0.00  0.00    +0.000 C 
ENDROOT
BRANCH   6   9
ATOM      9  S   UNL     1       8.934  -3.046  24.291  0.00  0.00    +0.000 S 
ATOM     10  O   UNL     1       9.019  -1.774  24.994  0.00  0.00    +0.000 OA
ATOM     11  O   UNL     1      10.071  -3.912  24.509  0.00  0.00    +0.000 OA
BRANCH   9  12
ATOM     12  C   UNL     1       7.492  -3.889  24.941  0.00  0.00    +0.000 C 
ATOM     13  C   UNL     1       7.933  -5.191  25.588  0.00  0.00    +0.000 C 
ATOM     14  C   UNL     1       7.253  -5.255  26.955  0.00  0.00    +0.000 C 
ATOM     15  C   UNL     1       6.323  -4.176  27.255  0.00  0.00    +0.000 C 
ATOM     16  S   UNL     1       6.808  -3.016  26.140  0.00  0.00    +0.000 S 
ENDBRANCH   9  12
ENDBRANCH   6   9
BRANCH   1  18
ATOM     17 CL   UNL     1       5.550   0.200  18.319  0.00  0.00    +0.000 Cl
ATOM     18  C   UNL     1       5.923  -0.819  19.736  0.00  0.00    +0.000 C 
ENDBRANCH   1  18
TORSDOF 3
ENDMDL
MODEL 3
REMARK VINA RESULT:      -5.7      1.364      1.985
REMARK  Name = 
REMARK  3 active torsions:
REMARK  status: ('A' for Active; 'I' for Inactive)
REMARK    1  A    between atoms: C_2  and  C_3
REMARK    2  A    between atoms: N_8  and  S_11
REMARK    3  A    between atoms: S_11  and  C_14
REMARK                            x       y       z     vdW  Elec       q    Type
REMARK                         _______ _______ _______ _____ _____    ______ ____
ROOT
ATOM      1  C   UNL     1      10.077   0.973  22.765  0.00  0.00    +0.000 C 
ATOM      2  O   UNL     1       9.809   0.976  21.583  0.00  0.00    +0.000 OA
ATOM      3  N   UNL     1      10.262  -0.175  23.457  0.00  0.00    +0.000 N 
ATOM      4  C   UNL     1       9.688  -0.250  24.813  0.00  0.00    +0.000 C 
ATOM      5  C   UNL     1       8.324  -0.898  24.717  0.00  0.00    +0.000 C 
ATOM      6  N   UNL     1       8.288  -2.050  23.951  0.00  0.00    +0.000 NA
ATOM      7  C   UNL     1       8.858  -1.984  22.688  0.00  0.00    +0.000 C 
ATOM      8  C   UNL     1      10.281  -1.442  22.711  0.00  0.00    +0.000 C 
ENDROOT
BRANCH   6   9
ATOM      9  S   UNL     1       8.536  -3.426  24.751  0.00  0.00    +0.000 S 
ATOM     10  O   UNL     1       8.533  -3.150  26.181  0.00  0.00    +0.000 OA
ATOM     11  O   UNL     1       9.749  -4.057  24.280  0.00  0.00    +0.000 OA
BRANCH   9  12
ATOM     12  C   UNL     1       7.191  -4.573  24.454  0.00  0.00    +0.000 C 
ATOM     13  C   UNL     1       5.904  -3.786  24.278  0.00  0.00    +0.000 C 
ATOM     14  C   UNL     1       5.220  -4.338  23.027  0.00  0.00    +0.000 C 
ATOM     15  C   UNL     1       5.867  -5.480  22.398  0.00  0.00    +0.000 C 
ATOM     16  S   UNL     1       7.414  -5.367  23.044  0.00  0.00    +0.000 S 
ENDBRANCH   9  12
ENDBRANCH   6   9
BRANCH   1  18
ATOM     17 CL   UNL     1      11.216   3.328  23.417  0.00  0.00    +0.000 Cl
ATOM     18  C   UNL     1       9.839   2.211  23.613  0.00  0.00    +0.000 C 
ENDBRANCH   1  18
TORSDOF 3
ENDMDL
MODEL 4
REMARK VINA RESULT:      -5.7      2.452      3.111
REMARK  Name = 
REMARK  3 active torsions:
REMARK  status: ('A' for Active; 'I' for Inactive)
REMARK    1  A    between atoms: C_2  and  C_3
REMARK    2  A    between atoms: N_8  and  S_11
REMARK    3  A    between atoms: S_11  and  C_14
REMARK                            x       y       z     vdW  Elec       q    Type
REMARK                         _______ _______ _______ _____ _____    ______ ____
ROOT
ATOM      1  C   UNL     1       9.079   0.290  24.052  0.00  0.00    +0.000 C 
ATOM      2  O   UNL     1       8.967   0.856  25.117  0.00  0.00    +0.000 OA
ATOM      3  N   UNL     1       8.466  -0.888  23.797  0.00  0.00    +0.000 N 
ATOM      4  C   UNL     1       9.235  -1.908  23.059  0.00  0.00    +0.000 C 
ATOM      5  C   UNL     1       9.891  -2.828  24.065  0.00  0.00    +0.000 C 
ATOM      6  N   UNL     1       9.050  -3.275  25.069  0.00  0.00    +0.000 NA
ATOM      7  C   UNL     1       8.304  -2.315  25.738  0.00  0.00    +0.000 C 
ATOM      8  C   UNL     1       7.521  -1.413  24.794  0.00  0.00    +0.000 C 
ENDROOT
BRANCH   6   9
ATOM      9  S   UNL     1       8.286  -4.662  24.772  0.00  0.00    +0.000 S 
ATOM     10  O   UNL     1       7.592  -5.087  25.980  0.00  0.00    +0.000 OA
ATOM     11  O   UNL     1       9.221  -5.640  24.260  0.00  0.00    +0.000 OA
BRANCH   9  12
ATOM     12  C   UNL     1       7.026  -4.426  23.521  0.00  0.00    +0.000 C 
ATOM     13  C   UNL     1       7.373  -5.271  22.307  0.00  0.00    +0.000 C 
ATOM     14  C   UNL     1       6.100  -6.018  21.912  0.00  0.00    +0.000 C 
ATOM     15  C   UNL     1       4.906  -5.690  22.676  0.00  0.00    +0.000 C 
ATOM     16  S   UNL     1       5.584  -4.988  24.044  0.00  0.00    +0.000 S 
ENDBRANCH   9  12
ENDBRANCH   6   9
BRANCH   1  18
ATOM     17 CL   UNL     1       9.527   1.553  21.712  0.00  0.00    +0.000 Cl
ATOM     18  C   UNL     1      10.204   0.657  23.098  0.00  0.00    +0.000 C 
ENDBRANCH   1  18
TORSDOF 3
ENDMDL
MODEL 5
REMARK VINA RESULT:      -5.7      3.471      6.604
REMARK  Name = 
REMARK  3 active torsions:
REMARK  status: ('A' for Active; 'I' for Inactive)
REMARK    1  A    between atoms: C_2  and  C_3
REMARK    2  A    between atoms: N_8  and  S_11
REMARK    3  A    between atoms: S_11  and  C_14
REMARK                            x       y       z     vdW  Elec       q    Type
REMARK                         _______ _______ _______ _____ _____    ______ ____
ROOT
ATOM      1  C   UNL     1       6.729  -5.507  26.914  0.00  0.00    +0.000 C 
ATOM      2  O   UNL     1       6.843  -5.020  28.018  0.00  0.00    +0.000 OA
ATOM      3  N   UNL     1       7.596  -5.228  25.913  0.00  0.00    +0.000 N 
ATOM      4  C   UNL     1       7.033  -5.019  24.566  0.00  0.00    +0.000 C 
ATOM      5  C   UNL     1       6.817  -3.535  24.367  0.00  0.00    +0.000 C 
ATOM      6  N   UNL     1       7.892  -2.743  24.732  0.00  0.00    +0.000 NA
ATOM      7  C   UNL     1       8.439  -2.966  25.988  0.00  0.00    +0.000 C 
ATOM      8  C   UNL     1       8.789  -4.428  26.228  0.00  0.00    +0.000 C 
ENDROOT
BRANCH   6   9
ATOM      9  S   UNL     1       8.953  -2.425  23.562  0.00  0.00    +0.000 S 
ATOM     10  O   UNL     1       8.357  -2.768  22.278  0.00  0.00    +0.000 OA
ATOM     11  O   UNL     1      10.200  -3.106  23.830  0.00  0.00    +0.000 OA
BRANCH   9  12
ATOM     12  C   UNL     1       9.309  -0.670  23.503  0.00  0.00    +0.000 C 
ATOM     13  C   UNL     1      10.027  -0.358  22.200  0.00  0.00    +0.000 C 
ATOM     14  C   UNL     1       9.328   0.860  21.595  0.00  0.00    +0.000 C 
ATOM     15  C   UNL     1       8.276   1.458  22.403  0.00  0.00    +0.000 C 
ATOM     16  S   UNL     1       7.926   0.196  23.456  0.00  0.00    +0.000 S 
ENDBRANCH   9  12
ENDBRANCH   6   9
BRANCH   1  18
ATOM     17 CL   UNL     1       4.091  -4.973  26.768  0.00  0.00    +0.000 Cl
ATOM     18  C   UNL     1       5.415  -6.133  26.479  0.00  0.00    +0.000 C 
ENDBRANCH   1  18
TORSDOF 3
ENDMDL
MODEL 6
REMARK VINA RESULT:      -5.6      3.820      6.563
REMARK  Name = 
REMARK  3 active torsions:
REMARK  status: ('A' for Active; 'I' for Inactive)
REMARK    1  A    between atoms: C_2  and  C_3
REMARK    2  A    between atoms: N_8  and  S_11
REMARK    3  A    between atoms: S_11  and  C_14
REMARK                            x       y       z     vdW  Elec       q    Type
REMARK                         _______ _______ _______ _____ _____    ______ ____
ROOT
ATOM      1  C   UNL     1       4.775  -4.705  24.403  0.00  0.00    +0.000 C 
ATOM      2  O   UNL     1       3.904  -3.896  24.167  0.00  0.00    +0.000 OA
ATOM      3  N   UNL     1       5.991  -4.336  24.866  0.00  0.00    +0.000 N 
ATOM      4  C   UNL     1       7.168  -5.025  24.304  0.00  0.00    +0.000 C 
ATOM      5  C   UNL     1       7.702  -4.196  23.158  0.00  0.00    +0.000 C 
ATOM      6  N   UNL     1       7.834  -2.847  23.436  0.00  0.00    +0.000 NA
ATOM      7  C   UNL     1       6.734  -2.210  23.995  0.00  0.00    +0.000 C 
ATOM      8  C   UNL     1       6.201  -2.926  25.228  0.00  0.00    +0.000 C 
ENDROOT
BRANCH   6   9
ATOM      9  S   UNL     1       9.266  -2.391  24.018  0.00  0.00    +0.000 S 
ATOM     10  O   UNL     1      10.112  -3.567  24.165  0.00  0.00    +0.000 OA
ATOM     11  O   UNL     1       9.084  -1.643  25.242  0.00  0.00    +0.000 OA
BRANCH   9  12
ATOM     12  C   UNL     1      10.098  -1.311  22.855  0.00  0.00    +0.000 C 
ATOM     13  C   UNL     1       9.231  -1.161  21.616  0.00  0.00    +0.000 C 
ATOM     14  C   UNL     1       9.166   0.334  21.303  0.00  0.00    +0.000 C 
ATOM     15  C   UNL     1       9.978   1.197  22.148  0.00  0.00    +0.000 C 
ATOM     16  S   UNL     1      10.241   0.195  23.471  0.00  0.00    +0.000 S 
ENDBRANCH   9  12
ENDBRANCH   6   9
BRANCH   1  18
ATOM     17 CL   UNL     1       4.185  -7.234  25.125  0.00  0.00    +0.000 Cl
ATOM     18  C   UNL     1       4.695  -6.112  23.835  0.00  0.00    +0.000 C 
ENDBRANCH   1  18
TORSDOF 3
ENDMDL
MODEL 7
REMARK VINA RESULT:      -5.6      3.519      6.417
REMARK  Name = 
REMARK  3 active torsions:
REMARK  status: ('A' for Active; 'I' for Inactive)
REMARK    1  A    between atoms: C_2  and  C_3
REMARK    2  A    between atoms: N_8  and  S_11
REMARK    3  A    between atoms: S_11  and  C_14
REMARK                            x       y       z     vdW  Elec       q    Type
REMARK                         _______ _______ _______ _____ _____    ______ ____
ROOT
ATOM      1  C   UNL     1       5.962  -5.681  23.931  0.00  0.00    +0.000 C 
ATOM      2  O   UNL     1       5.608  -5.770  25.087  0.00  0.00    +0.000 OA
ATOM      3  N   UNL     1       7.159  -5.153  23.586  0.00  0.00    +0.000 N 
ATOM      4  C   UNL     1       7.193  -4.263  22.411  0.00  0.00    +0.000 C 
ATOM      5  C   UNL     1       7.058  -2.835  22.891  0.00  0.00    +0.000 C 
ATOM      6  N   UNL     1       7.878  -2.507  23.957  0.00  0.00    +0.000 NA
ATOM      7  C   UNL     1       7.866  -3.365  25.047  0.00  0.00    +0.000 C 
ATOM      8  C   UNL     1       8.108  -4.817  24.658  0.00  0.00    +0.000 C 
ENDROOT
BRANCH   6   9
ATOM      9  S   UNL     1       9.320  -1.904  23.567  0.00  0.00    +0.000 S 
ATOM     10  O   UNL     1       9.272  -1.410  22.197  0.00  0.00    +0.000 OA
ATOM     11  O   UNL     1      10.346  -2.898  23.794  0.00  0.00    +0.000 OA
BRANCH   9  12
ATOM     12  C   UNL     1       9.709  -0.494  24.600  0.00  0.00    +0.000 C 
ATOM     13  C   UNL     1      10.849   0.284  23.964  0.00  0.00    +0.000 C 
ATOM     14  C   UNL     1      10.435   1.755  23.972  0.00  0.00    +0.000 C 
ATOM     15  C   UNL     1       9.176   2.060  24.635  0.00  0.00    +0.000 C 
ATOM     16  S   UNL     1       8.449   0.545  24.653  0.00  0.00    +0.000 S 
ENDBRANCH   9  12
ENDBRANCH   6   9
BRANCH   1  18
ATOM     17 CL   UNL     1       3.421  -5.023  23.316  0.00  0.00    +0.000 Cl
ATOM     18  C   UNL     1       4.950  -5.789  22.804  0.00  0.00    +0.000 C 
ENDBRANCH   1  18
TORSDOF 3
ENDMDL
MODEL 8
REMARK VINA RESULT:      -5.5      1.689      2.062
REMARK  Name = 
REMARK  3 active torsions:
REMARK  status: ('A' for Active; 'I' for Inactive)
REMARK    1  A    between atoms: C_2  and  C_3
REMARK    2  A    between atoms: N_8  and  S_11
REMARK    3  A    between atoms: S_11  and  C_14
REMARK                            x       y       z     vdW  Elec       q    Type
REMARK                         _______ _______ _______ _____ _____    ______ ____
ROOT
ATOM      1  C   UNL     1       8.683   0.010  22.098  0.00  0.00    +0.000 C 
ATOM      2  O   UNL     1       7.617   0.571  22.232  0.00  0.00    +0.000 OA
ATOM      3  N   UNL     1       8.795  -1.338  22.137  0.00  0.00    +0.000 N 
ATOM      4  C   UNL     1       9.949  -1.902  22.861  0.00  0.00    +0.000 C 
ATOM      5  C   UNL     1       9.516  -2.213  24.277  0.00  0.00    +0.000 C 
ATOM      6  N   UNL     1       8.315  -2.894  24.375  0.00  0.00    +0.000 NA
ATOM      7  C   UNL     1       7.240  -2.377  23.665  0.00  0.00    +0.000 C 
ATOM      8  C   UNL     1       7.562  -2.138  22.196  0.00  0.00    +0.000 C 
ENDROOT
BRANCH   6   9
ATOM      9  S   UNL     1       8.423  -4.501  24.392  0.00  0.00    +0.000 S 
ATOM     10  O   UNL     1       9.815  -4.879  24.597  0.00  0.00    +0.000 OA
ATOM     11  O   UNL     1       7.842  -5.046  23.185  0.00  0.00    +0.000 OA
BRANCH   9  12
ATOM     12  C   UNL     1       7.506  -5.175  25.775  0.00  0.00    +0.000 C 
ATOM     13  C   UNL     1       7.438  -4.131  26.876  0.00  0.00    +0.000 C 
ATOM     14  C   UNL     1       5.980  -4.066  27.331  0.00  0.00    +0.000 C 
ATOM     15  C   UNL     1       5.077  -5.027  26.716  0.00  0.00    +0.000 C 
ATOM     16  S   UNL     1       5.955  -5.462  25.350  0.00  0.00    +0.000 S 
ENDBRANCH   9  12
ENDBRANCH   6   9
BRANCH   1  18
ATOM     17 CL   UNL     1       9.974   1.599  23.852  0.00  0.00    +0.000 Cl
ATOM     18  C   UNL     1       9.984   0.774  22.269  0.00  0.00    +0.000 C 
ENDBRANCH   1  18
TORSDOF 3
ENDMDL
MODEL 9
REMARK VINA RESULT:      -5.4      3.835      6.482
REMARK  Name = 
REMARK  3 active torsions:
REMARK  status: ('A' for Active; 'I' for Inactive)
REMARK    1  A    between atoms: C_2  and  C_3
REMARK    2  A    between atoms: N_8  and  S_11
REMARK    3  A    between atoms: S_11  and  C_14
REMARK                            x       y       z     vdW  Elec       q    Type
REMARK                         _______ _______ _______ _____ _____    ______ ____
ROOT
ATOM      1  C   UNL     1       6.814  -4.993  24.631  0.00  0.00    +0.000 C 
ATOM      2  O   UNL     1       6.467  -4.779  25.772  0.00  0.00    +0.000 OA
ATOM      3  N   UNL     1       7.897  -4.393  24.085  0.00  0.00    +0.000 N 
ATOM      4  C   UNL     1       7.782  -3.924  22.692  0.00  0.00    +0.000 C 
ATOM      5  C   UNL     1       7.378  -2.467  22.713  0.00  0.00    +0.000 C 
ATOM      6  N   UNL     1       8.109  -1.680  23.586  0.00  0.00    +0.000 NA
ATOM      7  C   UNL     1       8.241  -2.142  24.888  0.00  0.00    +0.000 C 
ATOM      8  C   UNL     1       8.753  -3.574  24.956  0.00  0.00    +0.000 C 
ENDROOT
BRANCH   6   9
ATOM      9  S   UNL     1       9.420  -0.981  22.964  0.00  0.00    +0.000 S 
ATOM     10  O   UNL     1      10.054  -1.907  22.035  0.00  0.00    +0.000 OA
ATOM     11  O   UNL     1      10.290  -0.532  24.028  0.00  0.00    +0.000 OA
BRANCH   9  12
ATOM     12  C   UNL     1       8.964   0.464  22.007  0.00  0.00    +0.000 C 
ATOM     13  C   UNL     1       8.533   0.019  20.619  0.00  0.00    +0.000 C 
ATOM     14  C   UNL     1       7.217   0.735  20.318  0.00  0.00    +0.000 C 
ATOM     15  C   UNL     1       6.766   1.689  21.320  0.00  0.00    +0.000 C 
ATOM     16  S   UNL     1       7.655   1.194  22.657  0.00  0.00    +0.000 S 
ENDBRANCH   9  12
ENDBRANCH   6   9
BRANCH   1  18
ATOM     17 CL   UNL     1       4.731  -6.702  24.517  0.00  0.00    +0.000 Cl
ATOM     18  C   UNL     1       5.854  -5.628  23.639  0.00  0.00    +0.000 C 
ENDBRANCH   1  18
TORSDOF 3
ENDMDL
