MODEL 1
REMARK VINA RESULT:      -5.9      0.000      0.000
REMARK  Name = 
REMARK  3 active torsions:
REMARK  status: ('A' for Active; 'I' for Inactive)
REMARK    1  A    between atoms: C_2  and  C_3
REMARK    2  A    between atoms: N_8  and  C_9
REMARK    3  A    between atoms: C_9  and  C_10
REMARK                            x       y       z     vdW  Elec       q    Type
REMARK                         _______ _______ _______ _____ _____    ______ ____
ROOT
ATOM      1  C   UNL     1       6.573  -5.128  24.323  0.00  0.00    +0.000 C 
ATOM      2  O   UNL     1       5.480  -5.625  24.173  0.00  0.00    +0.000 OA
ATOM      3  N   UNL     1       7.000  -4.774  25.573  0.00  0.00    +0.000 N 
ATOM      4  C   UNL     1       6.817  -3.358  25.947  0.00  0.00    +0.000 C 
ATOM      5  C   UNL     1       8.199  -2.701  25.912  0.00  0.00    +0.000 C 
ATOM      6  N   UNL     1       9.064  -3.329  25.050  0.00  0.00    +0.000 NA
ATOM      7  C   UNL     1       9.400  -4.643  25.320  0.00  0.00    +0.000 C 
ATOM      8  C   UNL     1       8.263  -5.393  26.020  0.00  0.00    +0.000 C 
ENDROOT
BRANCH   1  10
ATOM      9 CL   UNL     1       6.988  -5.577  21.695  0.00  0.00    +0.000 Cl
ATOM     10  C   UNL     1       7.689  -5.346  23.319  0.00  0.00    +0.000 C 
ENDBRANCH   1  10
BRANCH   6  11
ATOM     11  C   UNL     1       9.397  -2.769  23.877  0.00  0.00    +0.000 C 
BRANCH  11  12
ATOM     12  C   UNL     1       8.834  -1.417  23.600  0.00  0.00    +0.000 A 
ATOM     13  C   UNL     1       7.481  -1.618  22.682  0.00  0.00    +0.000 A 
ATOM     14  C   UNL     1       7.717  -0.975  21.342  0.00  0.00    +0.000 A 
ATOM     15  C   UNL     1       8.538   0.240  20.912  0.00  0.00    +0.000 A 
ATOM     16  C   UNL     1       9.857   0.355  21.749  0.00  0.00    +0.000 A 
ATOM     17 CL   UNL     1      10.030   2.026  22.111  0.00  0.00    +0.000 Cl
ATOM     18  C   UNL     1       9.672  -0.360  23.033  0.00  0.00    +0.000 A 
ENDBRANCH  11  12
ENDBRANCH   6  11
TORSDOF 3
ENDMDL
MODEL 2
REMARK VINA RESULT:      -5.8      2.895      5.822
REMARK  Name = 
REMARK  3 active torsions:
REMARK  status: ('A' for Active; 'I' for Inactive)
REMARK    1  A    between atoms: C_2  and  C_3
REMARK    2  A    between atoms: N_8  and  C_9
REMARK    3  A    between atoms: C_9  and  C_10
REMARK                            x       y       z     vdW  Elec       q    Type
REMARK                         _______ _______ _______ _____ _____    ______ ____
ROOT
ATOM      1  C   UNL     1       9.066   0.225  22.074  0.00  0.00    +0.000 C 
ATOM      2  O   UNL     1       9.701   1.116  21.556  0.00  0.00    +0.000 OA
ATOM      3  N   UNL     1       9.048   0.097  23.435  0.00  0.00    +0.000 N 
ATOM      4  C   UNL     1       9.999  -0.874  24.011  0.00  0.00    +0.000 C 
ATOM      5  C   UNL     1       9.184  -2.091  24.457  0.00  0.00    +0.000 C 
ATOM      6  N   UNL     1       8.021  -2.242  23.744  0.00  0.00    +0.000 NA
ATOM      7  C   UNL     1       7.075  -1.238  23.838  0.00  0.00    +0.000 C 
ATOM      8  C   UNL     1       7.715   0.135  24.066  0.00  0.00    +0.000 C 
ENDROOT
BRANCH   1  10
ATOM      9 CL   UNL     1       7.910   0.029  19.644  0.00  0.00    +0.000 Cl
ATOM     10  C   UNL     1       7.893  -0.427  21.368  0.00  0.00    +0.000 C 
ENDBRANCH   1  10
BRANCH   6  11
ATOM     11  C   UNL     1       7.896  -3.211  22.825  0.00  0.00    +0.000 C 
BRANCH  11  12
ATOM     12  C   UNL     1       7.643  -4.587  23.338  0.00  0.00    +0.000 A 
ATOM     13  C   UNL     1       7.187  -5.522  22.060  0.00  0.00    +0.000 A 
ATOM     14  C   UNL     1       5.772  -5.981  22.289  0.00  0.00    +0.000 A 
ATOM     15  C   UNL     1       4.988  -6.307  23.559  0.00  0.00    +0.000 A 
ATOM     16  C   UNL     1       5.385  -5.347  24.731  0.00  0.00    +0.000 A 
ATOM     17 CL   UNL     1       5.489  -6.343  26.128  0.00  0.00    +0.000 Cl
ATOM     18  C   UNL     1       6.740  -4.808  24.468  0.00  0.00    +0.000 A 
ENDBRANCH  11  12
ENDBRANCH   6  11
TORSDOF 3
ENDMDL
MODEL 3
REMARK VINA RESULT:      -5.6      2.042      2.933
REMARK  Name = 
REMARK  3 active torsions:
REMARK  status: ('A' for Active; 'I' for Inactive)
REMARK    1  A    between atoms: C_2  and  C_3
REMARK    2  A    between atoms: N_8  and  C_9
REMARK    3  A    between atoms: C_9  and  C_10
REMARK                            x       y       z     vdW  Elec       q    Type
REMARK                         _______ _______ _______ _____ _____    ______ ____
ROOT
ATOM      1  C   UNL     1       6.449  -5.222  25.253  0.00  0.00    +0.000 C 
ATOM      2  O   UNL     1       6.431  -6.103  26.083  0.00  0.00    +0.000 OA
ATOM      3  N   UNL     1       5.589  -5.261  24.192  0.00  0.00    +0.000 N 
ATOM      4  C   UNL     1       6.127  -5.820  22.936  0.00  0.00    +0.000 C 
ATOM      5  C   UNL     1       6.348  -4.645  21.980  0.00  0.00    +0.000 C 
ATOM      6  N   UNL     1       6.565  -3.459  22.637  0.00  0.00    +0.000 NA
ATOM      7  C   UNL     1       5.545  -2.969  23.431  0.00  0.00    +0.000 C 
ATOM      8  C   UNL     1       4.702  -4.092  24.041  0.00  0.00    +0.000 C 
ENDROOT
BRANCH   1  10
ATOM      9 CL   UNL     1       8.668  -3.974  26.147  0.00  0.00    +0.000 Cl
ATOM     10  C   UNL     1       6.984  -3.840  25.575  0.00  0.00    +0.000 C 
ENDBRANCH   1  10
BRANCH   6  11
ATOM     11  C   UNL     1       7.789  -2.910  22.684  0.00  0.00    +0.000 C 
BRANCH  11  12
ATOM     12  C   UNL     1       7.850  -1.439  22.913  0.00  0.00    +0.000 A 
ATOM     13  C   UNL     1       7.538  -0.696  21.476  0.00  0.00    +0.000 A 
ATOM     14  C   UNL     1       8.765   0.070  21.061  0.00  0.00    +0.000 A 
ATOM     15  C   UNL     1       9.855   0.782  21.861  0.00  0.00    +0.000 A 
ATOM     16  C   UNL     1      10.186   0.007  23.181  0.00  0.00    +0.000 A 
ATOM     17 CL   UNL     1      10.358   1.211  24.394  0.00  0.00    +0.000 Cl
ATOM     18  C   UNL     1       9.020  -0.830  23.548  0.00  0.00    +0.000 A 
ENDBRANCH  11  12
ENDBRANCH   6  11
TORSDOF 3
ENDMDL
MODEL 4
REMARK VINA RESULT:      -5.5      3.066      6.116
REMARK  Name = 
REMARK  3 active torsions:
REMARK  status: ('A' for Active; 'I' for Inactive)
REMARK    1  A    between atoms: C_2  and  C_3
REMARK    2  A    between atoms: N_8  and  C_9
REMARK    3  A    between atoms: C_9  and  C_10
REMARK                            x       y       z     vdW  Elec       q    Type
REMARK                         _______ _______ _______ _____ _____    ______ ____
ROOT
ATOM      1  C   UNL     1       9.226   1.456  22.892  0.00  0.00    +0.000 C 
ATOM      2  O   UNL     1       9.706   2.560  23.019  0.00  0.00    +0.000 OA
ATOM      3  N   UNL     1       9.160   0.875  21.657  0.00  0.00    +0.000 N 
ATOM      4  C   UNL     1       7.876   1.008  20.941  0.00  0.00    +0.000 C 
ATOM      5  C   UNL     1       7.189  -0.359  20.992  0.00  0.00    +0.000 C 
ATOM      6  N   UNL     1       7.574  -1.107  22.077  0.00  0.00    +0.000 NA
ATOM      7  C   UNL     1       8.904  -1.474  22.165  0.00  0.00    +0.000 C 
ATOM      8  C   UNL     1       9.830  -0.434  21.526  0.00  0.00    +0.000 C 
ENDROOT
BRANCH   1  10
ATOM      9 CL   UNL     1      10.738   0.481  24.903  0.00  0.00    +0.000 Cl
ATOM     10  C   UNL     1       9.172   0.477  24.049  0.00  0.00    +0.000 C 
ENDBRANCH   1  10
BRANCH   6  11
ATOM     11  C   UNL     1       6.747  -1.290  23.118  0.00  0.00    +0.000 C 
BRANCH  11  12
ATOM     12  C   UNL     1       6.231  -2.673  23.323  0.00  0.00    +0.000 A 
ATOM     13  C   UNL     1       6.982  -3.295  24.651  0.00  0.00    +0.000 A 
ATOM     14  C   UNL     1       7.816  -4.471  24.217  0.00  0.00    +0.000 A 
ATOM     15  C   UNL     1       7.637  -5.507  23.108  0.00  0.00    +0.000 A 
ATOM     16  C   UNL     1       6.996  -4.865  21.832  0.00  0.00    +0.000 A 
ATOM     17 CL   UNL     1       5.844  -6.009  21.268  0.00  0.00    +0.000 Cl
ATOM     18  C   UNL     1       6.253  -3.647  22.231  0.00  0.00    +0.000 A 
ENDBRANCH  11  12
ENDBRANCH   6  11
TORSDOF 3
ENDMDL
MODEL 5
REMARK VINA RESULT:      -5.4      3.333      6.108
REMARK  Name = 
REMARK  3 active torsions:
REMARK  status: ('A' for Active; 'I' for Inactive)
REMARK    1  A    between atoms: C_2  and  C_3
REMARK    2  A    between atoms: N_8  and  C_9
REMARK    3  A    between atoms: C_9  and  C_10
REMARK                            x       y       z     vdW  Elec       q    Type
REMARK                         _______ _______ _______ _____ _____    ______ ____
ROOT
ATOM      1  C   UNL     1       8.821   1.854  23.786  0.00  0.00    +0.000 C 
ATOM      2  O   UNL     1       9.000   2.853  24.444  0.00  0.00    +0.000 OA
ATOM      3  N   UNL     1       8.729   1.936  22.424  0.00  0.00    +0.000 N 
ATOM      4  C   UNL     1       7.364   1.989  21.865  0.00  0.00    +0.000 C 
ATOM      5  C   UNL     1       7.086   0.624  21.229  0.00  0.00    +0.000 C 
ATOM      6  N   UNL     1       7.815  -0.387  21.802  0.00  0.00    +0.000 NA
ATOM      7  C   UNL     1       9.193  -0.322  21.702  0.00  0.00    +0.000 C 
ATOM      8  C   UNL     1       9.699   1.123  21.665  0.00  0.00    +0.000 C 
ENDROOT
BRANCH   1  10
ATOM      9 CL   UNL     1      10.885   0.524  24.903  0.00  0.00    +0.000 Cl
ATOM     10  C   UNL     1       9.205   0.482  24.306  0.00  0.00    +0.000 C 
ENDBRANCH   1  10
BRANCH   6  11
ATOM     11  C   UNL     1       7.234  -1.284  22.614  0.00  0.00    +0.000 C 
BRANCH  11  12
ATOM     12  C   UNL     1       7.858  -2.636  22.668  0.00  0.00    +0.000 A 
ATOM     13  C   UNL     1       6.719  -3.732  22.204  0.00  0.00    +0.000 A 
ATOM     14  C   UNL     1       6.429  -4.638  23.370  0.00  0.00    +0.000 A 
ATOM     15  C   UNL     1       7.297  -5.151  24.518  0.00  0.00    +0.000 A 
ATOM     16  C   UNL     1       8.313  -4.056  24.990  0.00  0.00    +0.000 A 
ATOM     17 CL   UNL     1       9.795  -4.885  25.256  0.00  0.00    +0.000 Cl
ATOM     18  C   UNL     1       8.533  -3.098  23.882  0.00  0.00    +0.000 A 
ENDBRANCH  11  12
ENDBRANCH   6  11
TORSDOF 3
ENDMDL
MODEL 6
REMARK VINA RESULT:      -5.4      2.868      6.115
REMARK  Name = 
REMARK  3 active torsions:
REMARK  status: ('A' for Active; 'I' for Inactive)
REMARK    1  A    between atoms: C_2  and  C_3
REMARK    2  A    between atoms: N_8  and  C_9
REMARK    3  A    between atoms: C_9  and  C_10
REMARK                            x       y       z     vdW  Elec       q    Type
REMARK                         _______ _______ _______ _____ _____    ______ ____
ROOT
ATOM      1  C   UNL     1       9.860   0.897  22.441  0.00  0.00    +0.000 C 
ATOM      2  O   UNL     1      10.307   1.879  21.893  0.00  0.00    +0.000 OA
ATOM      3  N   UNL     1       9.727  -0.274  21.749  0.00  0.00    +0.000 N 
ATOM      4  C   UNL     1       8.391  -0.551  21.185  0.00  0.00    +0.000 C 
ATOM      5  C   UNL     1       7.760  -1.650  22.043  0.00  0.00    +0.000 C 
ATOM      6  N   UNL     1       8.248  -1.669  23.326  0.00  0.00    +0.000 NA
ATOM      7  C   UNL     1       9.594  -1.937  23.497  0.00  0.00    +0.000 C 
ATOM      8  C   UNL     1      10.433  -1.439  22.317  0.00  0.00    +0.000 C 
ENDROOT
BRANCH   1  10
ATOM      9 CL   UNL     1       9.047   2.073  24.729  0.00  0.00    +0.000 Cl
ATOM     10  C   UNL     1       9.923   0.731  23.947  0.00  0.00    +0.000 C 
ENDBRANCH   1  10
BRANCH   6  11
ATOM     11  C   UNL     1       7.504  -1.232  24.354  0.00  0.00    +0.000 C 
BRANCH  11  12
ATOM     12  C   UNL     1       6.886  -2.275  25.219  0.00  0.00    +0.000 A 
ATOM     13  C   UNL     1       7.885  -2.512  26.508  0.00  0.00    +0.000 A 
ATOM     14  C   UNL     1       8.403  -3.924  26.454  0.00  0.00    +0.000 A 
ATOM     15  C   UNL     1       7.789  -5.228  25.944  0.00  0.00    +0.000 A 
ATOM     16  C   UNL     1       6.912  -4.980  24.670  0.00  0.00    +0.000 A 
ATOM     17 CL   UNL     1       5.509  -5.949  24.880  0.00  0.00    +0.000 Cl
ATOM     18  C   UNL     1       6.477  -3.564  24.659  0.00  0.00    +0.000 A 
ENDBRANCH  11  12
ENDBRANCH   6  11
TORSDOF 3
ENDMDL
MODEL 7
REMARK VINA RESULT:      -5.4      2.063      2.784
REMARK  Name = 
REMARK  3 active torsions:
REMARK  status: ('A' for Active; 'I' for Inactive)
REMARK    1  A    between atoms: C_2  and  C_3
REMARK    2  A    between atoms: N_8  and  C_9
REMARK    3  A    between atoms: C_9  and  C_10
REMARK                            x       y       z     vdW  Elec       q    Type
REMARK                         _______ _______ _______ _____ _____    ______ ____
ROOT
ATOM      1  C   UNL     1       7.364  -5.026  26.225  0.00  0.00    +0.000 C 
ATOM      2  O   UNL     1       7.329  -6.060  26.852  0.00  0.00    +0.000 OA
ATOM      3  N   UNL     1       6.201  -4.393  25.881  0.00  0.00    +0.000 N 
ATOM      4  C   UNL     1       5.691  -4.659  24.522  0.00  0.00    +0.000 C 
ATOM      5  C   UNL     1       5.953  -3.401  23.690  0.00  0.00    +0.000 C 
ATOM      6  N   UNL     1       7.015  -2.667  24.155  0.00  0.00    +0.000 NA
ATOM      7  C   UNL     1       6.918  -2.131  25.426  0.00  0.00    +0.000 C 
ATOM      8  C   UNL     1       6.065  -3.001  26.353  0.00  0.00    +0.000 C 
ENDROOT
BRANCH   1  10
ATOM      9 CL   UNL     1       9.965  -4.985  25.512  0.00  0.00    +0.000 Cl
ATOM     10  C   UNL     1       8.585  -4.126  26.244  0.00  0.00    +0.000 C 
ENDBRANCH   1  10
BRANCH   6  11
ATOM     11  C   UNL     1       8.186  -2.653  23.498  0.00  0.00    +0.000 C 
BRANCH  11  12
ATOM     12  C   UNL     1       8.224  -1.881  22.224  0.00  0.00    +0.000 A 
ATOM     13  C   UNL     1       9.796  -1.484  21.928  0.00  0.00    +0.000 A 
ATOM     14  C   UNL     1       9.924   0.015  21.973  0.00  0.00    +0.000 A 
ATOM     15  C   UNL     1       8.959   1.142  21.608  0.00  0.00    +0.000 A 
ATOM     16  C   UNL     1       7.484   0.767  21.978  0.00  0.00    +0.000 A 
ATOM     17 CL   UNL     1       6.525   1.308  20.659  0.00  0.00    +0.000 Cl
ATOM     18  C   UNL     1       7.368  -0.709  22.036  0.00  0.00    +0.000 A 
ENDBRANCH  11  12
ENDBRANCH   6  11
TORSDOF 3
ENDMDL
MODEL 8
REMARK VINA RESULT:      -5.3      3.085      5.757
REMARK  Name = 
REMARK  3 active torsions:
REMARK  status: ('A' for Active; 'I' for Inactive)
REMARK    1  A    between atoms: C_2  and  C_3
REMARK    2  A    between atoms: N_8  and  C_9
REMARK    3  A    between atoms: C_9  and  C_10
REMARK                            x       y       z     vdW  Elec       q    Type
REMARK                         _______ _______ _______ _____ _____    ______ ____
ROOT
ATOM      1  C   UNL     1       8.262   0.591  24.017  0.00  0.00    +0.000 C 
ATOM      2  O   UNL     1       8.068   1.764  24.243  0.00  0.00    +0.000 OA
ATOM      3  N   UNL     1       9.413   0.193  23.396  0.00  0.00    +0.000 N 
ATOM      4  C   UNL     1       9.328  -0.017  21.938  0.00  0.00    +0.000 C 
ATOM      5  C   UNL     1       9.353  -1.529  21.699  0.00  0.00    +0.000 C 
ATOM      6  N   UNL     1       8.875  -2.244  22.769  0.00  0.00    +0.000 NA
ATOM      7  C   UNL     1       9.564  -2.151  23.964  0.00  0.00    +0.000 C 
ATOM      8  C   UNL     1      10.235  -0.785  24.135  0.00  0.00    +0.000 C 
ENDROOT
BRANCH   1  10
ATOM      9 CL   UNL     1       5.813  -0.396  24.573  0.00  0.00    +0.000 Cl
ATOM     10  C   UNL     1       7.576  -0.496  24.822  0.00  0.00    +0.000 C 
ENDBRANCH   1  10
BRANCH   6  11
ATOM     11  C   UNL     1       7.669  -2.832  22.723  0.00  0.00    +0.000 C 
BRANCH  11  12
ATOM     12  C   UNL     1       7.585  -4.220  23.258  0.00  0.00    +0.000 A 
ATOM     13  C   UNL     1       7.257  -5.225  21.994  0.00  0.00    +0.000 A 
ATOM     14  C   UNL     1       5.908  -5.851  22.223  0.00  0.00    +0.000 A 
ATOM     15  C   UNL     1       5.160  -6.251  23.494  0.00  0.00    +0.000 A 
ATOM     16  C   UNL     1       5.427  -5.230  24.652  0.00  0.00    +0.000 A 
ATOM     17 CL   UNL     1       5.643  -6.182  26.066  0.00  0.00    +0.000 Cl
ATOM     18  C   UNL     1       6.707  -4.532  24.387  0.00  0.00    +0.000 A 
ENDBRANCH  11  12
ENDBRANCH   6  11
TORSDOF 3
ENDMDL
MODEL 9
REMARK VINA RESULT:      -5.3      2.265      3.018
REMARK  Name = 
REMARK  3 active torsions:
REMARK  status: ('A' for Active; 'I' for Inactive)
REMARK    1  A    between atoms: C_2  and  C_3
REMARK    2  A    between atoms: N_8  and  C_9
REMARK    3  A    between atoms: C_9  and  C_10
REMARK                            x       y       z     vdW  Elec       q    Type
REMARK                         _______ _______ _______ _____ _____    ______ ____
ROOT
ATOM      1  C   UNL     1       7.392  -4.711  26.994  0.00  0.00    +0.000 C 
ATOM      2  O   UNL     1       7.131  -5.405  27.950  0.00  0.00    +0.000 OA
ATOM      3  N   UNL     1       7.890  -5.276  25.852  0.00  0.00    +0.000 N 
ATOM      4  C   UNL     1       9.357  -5.240  25.694  0.00  0.00    +0.000 C 
ATOM      5  C   UNL     1       9.668  -4.187  24.627  0.00  0.00    +0.000 C 
ATOM      6  N   UNL     1       8.701  -3.217  24.540  0.00  0.00    +0.000 NA
ATOM      7  C   UNL     1       7.429  -3.609  24.165  0.00  0.00    +0.000 C 
ATOM      8  C   UNL     1       7.109  -5.035  24.623  0.00  0.00    +0.000 C 
ENDROOT
BRANCH   1  10
ATOM      9 CL   UNL     1       5.003  -3.477  27.214  0.00  0.00    +0.000 Cl
ATOM     10  C   UNL     1       6.731  -3.362  26.788  0.00  0.00    +0.000 C 
ENDBRANCH   1  10
BRANCH   6  11
ATOM     11  C   UNL     1       8.920  -1.979  25.010  0.00  0.00    +0.000 C 
BRANCH  11  12
ATOM     12  C   UNL     1       9.551  -1.011  24.067  0.00  0.00    +0.000 A 
ATOM     13  C   UNL     1      10.149   0.238  24.959  0.00  0.00    +0.000 A 
ATOM     14  C   UNL     1       9.409   1.491  24.577  0.00  0.00    +0.000 A 
ATOM     15  C   UNL     1       8.785   1.959  23.262  0.00  0.00    +0.000 A 
ATOM     16  C   UNL     1       8.153   0.760  22.478  0.00  0.00    +0.000 A 
ATOM     17 CL   UNL     1       8.577   1.010  20.831  0.00  0.00    +0.000 Cl
ATOM     18  C   UNL     1       8.805  -0.495  22.918  0.00  0.00    +0.000 A 
ENDBRANCH  11  12
ENDBRANCH   6  11
TORSDOF 3
ENDMDL
