MODEL 1
REMARK VINA RESULT:      -6.0      0.000      0.000
REMARK  Name = 
REMARK  2 active torsions:
REMARK  status: ('A' for Active; 'I' for Inactive)
REMARK    1  A    between atoms: C_8  and  C_9
REMARK    2  A    between atoms: C_9  and  S_10
REMARK                            x       y       z     vdW  Elec       q    Type
REMARK                         _______ _______ _______ _____ _____    ______ ____
ROOT
ATOM      1  C   UNL     1       8.508  -1.902  22.205  0.00  0.00    +0.000 C 
ATOM      2  C   UNL     1       8.772  -0.753  21.255  0.00  0.00    +0.000 A 
ATOM      3  C   UNL     1      10.049   0.087  22.018  0.00  0.00    +0.000 A 
ATOM      4  C   UNL     1       9.587   1.496  22.214  0.00  0.00    +0.000 A 
ATOM      5  F   UNL     1      10.685   2.224  21.852  0.00  0.00    +0.000 F 
ATOM      6  C   UNL     1       8.421   2.337  21.919  0.00  0.00    +0.000 A 
ATOM      7  C   UNL     1       7.243   1.539  21.282  0.00  0.00    +0.000 A 
ATOM      8  C   UNL     1       7.797   0.199  20.747  0.00  0.00    +0.000 A 
ENDROOT
BRANCH   8   9
ATOM      9  C   UNL     1       7.587   0.286  19.188  0.00  0.00    +0.000 C 
BRANCH   9  10
ATOM     10  S   UNL     1       5.975  -0.356  18.827  0.00  0.00    +0.000 S 
ATOM     11  O   UNL     1       5.986  -0.795  17.447  0.00  0.00    +0.000 OA
ATOM     12  O   UNL     1       5.642  -1.380  19.773  0.00  0.00    +0.000 OA
ATOM     13  N   UNL     1       4.878   0.869  18.960  0.00  0.00    +0.000 NA
ENDBRANCH   9  10
ENDBRANCH   8   9
TORSDOF 2
ENDMDL
MODEL 2
REMARK VINA RESULT:      -5.3      1.354      1.494
REMARK  Name = 
REMARK  2 active torsions:
REMARK  status: ('A' for Active; 'I' for Inactive)
REMARK    1  A    between atoms: C_8  and  C_9
REMARK    2  A    between atoms: C_9  and  S_10
REMARK                            x       y       z     vdW  Elec       q    Type
REMARK                         _______ _______ _______ _____ _____    ______ ____
ROOT
ATOM      1  C   UNL     1       6.375  -1.834  22.265  0.00  0.00    +0.000 C 
ATOM      2  C   UNL     1       7.518  -1.230  21.478  0.00  0.00    +0.000 A 
ATOM      3  C   UNL     1       8.814  -1.276  22.590  0.00  0.00    +0.000 A 
ATOM      4  C   UNL     1       9.316   0.126  22.731  0.00  0.00    +0.000 A 
ATOM      5  F   UNL     1      10.673  -0.039  22.707  0.00  0.00    +0.000 F 
ATOM      6  C   UNL     1       9.055   1.462  22.185  0.00  0.00    +0.000 A 
ATOM      7  C   UNL     1       7.829   1.496  21.222  0.00  0.00    +0.000 A 
ATOM      8  C   UNL     1       7.518   0.047  20.782  0.00  0.00    +0.000 A 
ENDROOT
BRANCH   8   9
ATOM      9  C   UNL     1       7.782   0.046  19.229  0.00  0.00    +0.000 C 
BRANCH   9  10
ATOM     10  S   UNL     1       6.209   0.141  18.417  0.00  0.00    +0.000 S 
ATOM     11  O   UNL     1       6.027  -1.098  17.688  0.00  0.00    +0.000 OA
ATOM     12  O   UNL     1       5.186   0.417  19.381  0.00  0.00    +0.000 OA
ATOM     13  N   UNL     1       6.255   1.372  17.320  0.00  0.00    +0.000 NA
ENDBRANCH   9  10
ENDBRANCH   8   9
TORSDOF 2
ENDMDL
MODEL 3
REMARK VINA RESULT:      -5.2      2.285      2.658
REMARK  Name = 
REMARK  2 active torsions:
REMARK  status: ('A' for Active; 'I' for Inactive)
REMARK    1  A    between atoms: C_8  and  C_9
REMARK    2  A    between atoms: C_9  and  S_10
REMARK                            x       y       z     vdW  Elec       q    Type
REMARK                         _______ _______ _______ _____ _____    ______ ____
ROOT
ATOM      1  C   UNL     1       6.930  -0.038  24.355  0.00  0.00    +0.000 C 
ATOM      2  C   UNL     1       8.203  -0.058  23.535  0.00  0.00    +0.000 A 
ATOM      3  C   UNL     1       9.425  -0.020  24.727  0.00  0.00    +0.000 A 
ATOM      4  C   UNL     1      10.283   1.168  24.433  0.00  0.00    +0.000 A 
ATOM      5  F   UNL     1      11.546   0.677  24.612  0.00  0.00    +0.000 F 
ATOM      6  C   UNL     1      10.397   2.241  23.439  0.00  0.00    +0.000 A 
ATOM      7  C   UNL     1       9.236   2.229  22.397  0.00  0.00    +0.000 A 
ATOM      8  C   UNL     1       8.553   0.843  22.449  0.00  0.00    +0.000 A 
ENDROOT
BRANCH   8   9
ATOM      9  C   UNL     1       8.826   0.222  21.027  0.00  0.00    +0.000 C 
BRANCH   9  10
ATOM     10  S   UNL     1       7.277   0.146  20.169  0.00  0.00    +0.000 S 
ATOM     11  O   UNL     1       6.630  -1.090  20.559  0.00  0.00    +0.000 OA
ATOM     12  O   UNL     1       6.515   1.327  20.445  0.00  0.00    +0.000 OA
ATOM     13  N   UNL     1       7.576   0.072  18.548  0.00  0.00    +0.000 NA
ENDBRANCH   9  10
ENDBRANCH   8   9
TORSDOF 2
ENDMDL
MODEL 4
REMARK VINA RESULT:      -5.1      1.759      2.702
REMARK  Name = 
REMARK  2 active torsions:
REMARK  status: ('A' for Active; 'I' for Inactive)
REMARK    1  A    between atoms: C_8  and  C_9
REMARK    2  A    between atoms: C_9  and  S_10
REMARK                            x       y       z     vdW  Elec       q    Type
REMARK                         _______ _______ _______ _____ _____    ______ ____
ROOT
ATOM      1  C   UNL     1       6.764   2.834  21.723  0.00  0.00    +0.000 C 
ATOM      2  C   UNL     1       6.843   1.328  21.863  0.00  0.00    +0.000 A 
ATOM      3  C   UNL     1       7.356   1.122  23.479  0.00  0.00    +0.000 A 
ATOM      4  C   UNL     1       8.613   0.313  23.436  0.00  0.00    +0.000 A 
ATOM      5  F   UNL     1       8.430  -0.578  24.456  0.00  0.00    +0.000 F 
ATOM      6  C   UNL     1       9.473  -0.357  22.454  0.00  0.00    +0.000 A 
ATOM      7  C   UNL     1       9.025  -0.103  20.982  0.00  0.00    +0.000 A 
ATOM      8  C   UNL     1       7.568   0.410  21.000  0.00  0.00    +0.000 A 
ENDROOT
BRANCH   8   9
ATOM      9  C   UNL     1       6.750  -0.714  20.258  0.00  0.00    +0.000 C 
BRANCH   9  10
ATOM     10  S   UNL     1       6.285  -0.081  18.670  0.00  0.00    +0.000 S 
ATOM     11  O   UNL     1       7.373   0.756  18.206  0.00  0.00    +0.000 OA
ATOM     12  O   UNL     1       5.958  -1.167  17.795  0.00  0.00    +0.000 OA
ATOM     13  N   UNL     1       4.954   0.876  18.854  0.00  0.00    +0.000 NA
ENDBRANCH   9  10
ENDBRANCH   8   9
TORSDOF 2
ENDMDL
MODEL 5
REMARK VINA RESULT:      -5.1      2.472      3.398
REMARK  Name = 
REMARK  2 active torsions:
REMARK  status: ('A' for Active; 'I' for Inactive)
REMARK    1  A    between atoms: C_8  and  C_9
REMARK    2  A    between atoms: C_9  and  S_10
REMARK                            x       y       z     vdW  Elec       q    Type
REMARK                         _______ _______ _______ _____ _____    ______ ____
ROOT
ATOM      1  C   UNL     1       7.468   0.191  19.337  0.00  0.00    +0.000 C 
ATOM      2  C   UNL     1       7.533   0.045  20.842  0.00  0.00    +0.000 A 
ATOM      3  C   UNL     1       8.564   1.325  21.306  0.00  0.00    +0.000 A 
ATOM      4  C   UNL     1       9.697   0.716  22.068  0.00  0.00    +0.000 A 
ATOM      5  F   UNL     1       9.844   1.574  23.122  0.00  0.00    +0.000 F 
ATOM      6  C   UNL     1      10.139  -0.599  22.545  0.00  0.00    +0.000 A 
ATOM      7  C   UNL     1       9.221  -1.761  22.058  0.00  0.00    +0.000 A 
ATOM      8  C   UNL     1       7.879  -1.155  21.587  0.00  0.00    +0.000 A 
ENDROOT
BRANCH   8   9
ATOM      9  C   UNL     1       6.814  -1.741  22.588  0.00  0.00    +0.000 C 
BRANCH   9  10
ATOM     10  S   UNL     1       6.119  -3.191  21.844  0.00  0.00    +0.000 S 
ATOM     11  O   UNL     1       5.649  -2.814  20.526  0.00  0.00    +0.000 OA
ATOM     12  O   UNL     1       7.088  -4.247  21.848  0.00  0.00    +0.000 OA
ATOM     13  N   UNL     1       4.811  -3.664  22.731  0.00  0.00    +0.000 NA
ENDBRANCH   9  10
ENDBRANCH   8   9
TORSDOF 2
ENDMDL
MODEL 6
REMARK VINA RESULT:      -5.0      5.972      7.347
REMARK  Name = 
REMARK  2 active torsions:
REMARK  status: ('A' for Active; 'I' for Inactive)
REMARK    1  A    between atoms: C_8  and  C_9
REMARK    2  A    between atoms: C_9  and  S_10
REMARK                            x       y       z     vdW  Elec       q    Type
REMARK                         _______ _______ _______ _____ _____    ______ ____
ROOT
ATOM      1  C   UNL     1       7.155  -5.387  26.152  0.00  0.00    +0.000 C 
ATOM      2  C   UNL     1       6.731  -4.714  24.864  0.00  0.00    +0.000 A 
ATOM      3  C   UNL     1       5.181  -5.375  24.581  0.00  0.00    +0.000 A 
ATOM      4  C   UNL     1       5.217  -6.004  23.225  0.00  0.00    +0.000 A 
ATOM      5  F   UNL     1       4.026  -5.610  22.681  0.00  0.00    +0.000 F 
ATOM      6  C   UNL     1       6.145  -6.175  22.101  0.00  0.00    +0.000 A 
ATOM      7  C   UNL     1       7.571  -5.623  22.402  0.00  0.00    +0.000 A 
ATOM      8  C   UNL     1       7.477  -4.671  23.617  0.00  0.00    +0.000 A 
ENDROOT
BRANCH   8   9
ATOM      9  C   UNL     1       7.875  -3.261  23.038  0.00  0.00    +0.000 C 
BRANCH   9  10
ATOM     10  S   UNL     1       9.363  -2.747  23.852  0.00  0.00    +0.000 S 
ATOM     11  O   UNL     1       8.991  -1.761  24.846  0.00  0.00    +0.000 OA
ATOM     12  O   UNL     1      10.043  -3.893  24.380  0.00  0.00    +0.000 OA
ATOM     13  N   UNL     1      10.341  -2.009  22.747  0.00  0.00    +0.000 NA
ENDBRANCH   9  10
ENDBRANCH   8   9
TORSDOF 2
ENDMDL
MODEL 7
REMARK VINA RESULT:      -4.8      4.317      4.928
REMARK  Name = 
REMARK  2 active torsions:
REMARK  status: ('A' for Active; 'I' for Inactive)
REMARK    1  A    between atoms: C_8  and  C_9
REMARK    2  A    between atoms: C_9  and  S_10
REMARK                            x       y       z     vdW  Elec       q    Type
REMARK                         _______ _______ _______ _____ _____    ______ ____
ROOT
ATOM      1  C   UNL     1       8.175   0.686  25.464  0.00  0.00    +0.000 C 
ATOM      2  C   UNL     1       9.201   0.211  24.457  0.00  0.00    +0.000 A 
ATOM      3  C   UNL     1       9.676   1.659  23.685  0.00  0.00    +0.000 A 
ATOM      4  C   UNL     1       9.430   1.473  22.222  0.00  0.00    +0.000 A 
ATOM      5  F   UNL     1      10.556   2.004  21.659  0.00  0.00    +0.000 F 
ATOM      6  C   UNL     1       8.957   0.439  21.295  0.00  0.00    +0.000 A 
ATOM      7  C   UNL     1       8.468  -0.851  22.022  0.00  0.00    +0.000 A 
ATOM      8  C   UNL     1       9.027  -0.836  23.463  0.00  0.00    +0.000 A 
ENDROOT
BRANCH   8   9
ATOM      9  C   UNL     1       9.992  -2.080  23.519  0.00  0.00    +0.000 C 
BRANCH   9  10
ATOM     10  S   UNL     1       9.152  -3.373  24.393  0.00  0.00    +0.000 S 
ATOM     11  O   UNL     1      10.114  -4.431  24.624  0.00  0.00    +0.000 OA
ATOM     12  O   UNL     1       8.558  -2.842  25.583  0.00  0.00    +0.000 OA
ATOM     13  N   UNL     1       7.960  -3.975  23.424  0.00  0.00    +0.000 NA
ENDBRANCH   9  10
ENDBRANCH   8   9
TORSDOF 2
ENDMDL
MODEL 8
REMARK VINA RESULT:      -4.8      4.499      4.977
REMARK  Name = 
REMARK  2 active torsions:
REMARK  status: ('A' for Active; 'I' for Inactive)
REMARK    1  A    between atoms: C_8  and  C_9
REMARK    2  A    between atoms: C_9  and  S_10
REMARK                            x       y       z     vdW  Elec       q    Type
REMARK                         _______ _______ _______ _____ _____    ______ ____
ROOT
ATOM      1  C   UNL     1      10.405  -0.151  24.103  0.00  0.00    +0.000 C 
ATOM      2  C   UNL     1       9.657  -0.911  23.028  0.00  0.00    +0.000 A 
ATOM      3  C   UNL     1       9.728   0.149  21.691  0.00  0.00    +0.000 A 
ATOM      4  C   UNL     1       8.318   0.411  21.269  0.00  0.00    +0.000 A 
ATOM      5  F   UNL     1       8.393   0.328  19.906  0.00  0.00    +0.000 F 
ATOM      6  C   UNL     1       6.954   0.008  21.630  0.00  0.00    +0.000 A 
ATOM      7  C   UNL     1       6.906  -0.908  22.891  0.00  0.00    +0.000 A 
ATOM      8  C   UNL     1       8.322  -1.478  23.131  0.00  0.00    +0.000 A 
ENDROOT
BRANCH   8   9
ATOM      9  C   UNL     1       8.157  -3.031  22.927  0.00  0.00    +0.000 C 
BRANCH   9  10
ATOM     10  S   UNL     1       8.612  -3.824  24.445  0.00  0.00    +0.000 S 
ATOM     11  O   UNL     1       7.846  -5.050  24.536  0.00  0.00    +0.000 OA
ATOM     12  O   UNL     1      10.033  -4.008  24.484  0.00  0.00    +0.000 OA
ATOM     13  N   UNL     1       8.165  -2.853  25.701  0.00  0.00    +0.000 NA
ENDBRANCH   9  10
ENDBRANCH   8   9
TORSDOF 2
ENDMDL
MODEL 9
REMARK VINA RESULT:      -4.6      4.014      5.184
REMARK  Name = 
REMARK  2 active torsions:
REMARK  status: ('A' for Active; 'I' for Inactive)
REMARK    1  A    between atoms: C_8  and  C_9
REMARK    2  A    between atoms: C_9  and  S_10
REMARK                            x       y       z     vdW  Elec       q    Type
REMARK                         _______ _______ _______ _____ _____    ______ ____
ROOT
ATOM      1  C   UNL     1       5.935  -2.901  22.156  0.00  0.00    +0.000 C 
ATOM      2  C   UNL     1       7.419  -3.101  22.381  0.00  0.00    +0.000 A 
ATOM      3  C   UNL     1       7.501  -4.695  22.989  0.00  0.00    +0.000 A 
ATOM      4  C   UNL     1       8.192  -4.621  24.312  0.00  0.00    +0.000 A 
ATOM      5  F   UNL     1       9.047  -5.686  24.263  0.00  0.00    +0.000 F 
ATOM      6  C   UNL     1       8.827  -3.625  25.183  0.00  0.00    +0.000 A 
ATOM      7  C   UNL     1       8.686  -2.169  24.643  0.00  0.00    +0.000 A 
ATOM      8  C   UNL     1       8.308  -2.241  23.146  0.00  0.00    +0.000 A 
ENDROOT
BRANCH   8   9
ATOM      9  C   UNL     1       9.536  -1.593  22.402  0.00  0.00    +0.000 C 
BRANCH   9  10
ATOM     10  S   UNL     1       8.971  -0.098  21.636  0.00  0.00    +0.000 S 
ATOM     11  O   UNL     1      10.045   0.870  21.740  0.00  0.00    +0.000 OA
ATOM     12  O   UNL     1       8.549  -0.373  20.295  0.00  0.00    +0.000 OA
ATOM     13  N   UNL     1       7.685   0.480  22.493  0.00  0.00    +0.000 NA
ENDBRANCH   9  10
ENDBRANCH   8   9
TORSDOF 2
ENDMDL
