MODEL 1
REMARK VINA RESULT:      -5.8      0.000      0.000
REMARK  Name = 
REMARK  3 active torsions:
REMARK  status: ('A' for Active; 'I' for Inactive)
REMARK    1  A    between atoms: C_2  and  C_3
REMARK    2  A    between atoms: N_5  and  C_6
REMARK    3  A    between atoms: C_6  and  C_7
REMARK                            x       y       z     vdW  Elec       q    Type
REMARK                         _______ _______ _______ _____ _____    ______ ____
ROOT
ATOM      1  C   UNL     1       5.647   0.351  19.468  0.00  0.00    +0.000 C 
ATOM      2  C   UNL     1       6.670   0.904  20.457  0.00  0.00    +0.000 C 
ATOM      3  N   UNL     1       7.380  -0.100  21.095  0.00  0.00    +0.000 NA
ATOM      4  C   UNL     1       6.645  -1.264  21.347  0.00  0.00    +0.000 C 
ATOM      5  C   UNL     1       5.899  -1.786  20.143  0.00  0.00    +0.000 C 
ATOM      6  O   UNL     1       6.111  -0.914  19.063  0.00  0.00    +0.000 OA
ENDROOT
BRANCH   1   8
ATOM      7  O   UNL     1       6.731   1.022  17.473  0.00  0.00    +0.000 OA
ATOM      8  C   UNL     1       5.588   1.251  18.250  0.00  0.00    +0.000 C 
ENDBRANCH   1   8
BRANCH   3   9
ATOM      9  C   UNL     1       8.686  -0.257  20.761  0.00  0.00    +0.000 C 
BRANCH   9  10
ATOM     10  C   UNL     1       9.797  -0.021  21.596  0.00  0.00    +0.000 A 
ATOM     11  C   UNL     1       9.987   1.541  22.056  0.00  0.00    +0.000 A 
ATOM     12  C   UNL     1      10.171   1.583  23.546  0.00  0.00    +0.000 A 
ATOM     13  C   UNL     1      10.280   0.638  24.671  0.00  0.00    +0.000 A 
ATOM     14  C   UNL     1      10.034  -0.861  24.191  0.00  0.00    +0.000 A 
ATOM     15  C   UNL     1      10.001  -0.931  22.749  0.00  0.00    +0.000 A 
ENDBRANCH   9  10
ENDBRANCH   3   9
TORSDOF 3
ENDMDL
MODEL 2
REMARK VINA RESULT:      -5.4      3.312      4.614
REMARK  Name = 
REMARK  3 active torsions:
REMARK  status: ('A' for Active; 'I' for Inactive)
REMARK    1  A    between atoms: C_2  and  C_3
REMARK    2  A    between atoms: N_5  and  C_6
REMARK    3  A    between atoms: C_6  and  C_7
REMARK                            x       y       z     vdW  Elec       q    Type
REMARK                         _______ _______ _______ _____ _____    ______ ____
ROOT
ATOM      1  C   UNL     1       7.401  -4.348  23.268  0.00  0.00    +0.000 C 
ATOM      2  C   UNL     1       7.696  -2.878  22.981  0.00  0.00    +0.000 C 
ATOM      3  N   UNL     1       8.709  -2.379  23.785  0.00  0.00    +0.000 NA
ATOM      4  C   UNL     1       8.745  -2.914  25.077  0.00  0.00    +0.000 C 
ATOM      5  C   UNL     1       8.695  -4.422  25.113  0.00  0.00    +0.000 C 
ATOM      6  O   UNL     1       8.578  -4.906  23.801  0.00  0.00    +0.000 OA
ENDROOT
BRANCH   1   8
ATOM      7  O   UNL     1       5.826  -4.625  21.522  0.00  0.00    +0.000 OA
ATOM      8  C   UNL     1       7.081  -5.059  21.968  0.00  0.00    +0.000 C 
ENDBRANCH   1   8
BRANCH   3   9
ATOM      9  C   UNL     1       9.902  -2.108  23.197  0.00  0.00    +0.000 C 
BRANCH   9  10
ATOM     10  C   UNL     1      10.408  -0.831  22.880  0.00  0.00    +0.000 A 
ATOM     11  C   UNL     1       9.706  -0.121  21.580  0.00  0.00    +0.000 A 
ATOM     12  C   UNL     1       9.299   1.275  21.956  0.00  0.00    +0.000 A 
ATOM     13  C   UNL     1       9.399   2.178  23.116  0.00  0.00    +0.000 A 
ATOM     14  C   UNL     1      10.034   1.434  24.373  0.00  0.00    +0.000 A 
ATOM     15  C   UNL     1      10.560   0.146  23.986  0.00  0.00    +0.000 A 
ENDBRANCH   9  10
ENDBRANCH   3   9
TORSDOF 3
ENDMDL
MODEL 3
REMARK VINA RESULT:      -5.3      4.130      5.888
REMARK  Name = 
REMARK  3 active torsions:
REMARK  status: ('A' for Active; 'I' for Inactive)
REMARK    1  A    between atoms: C_2  and  C_3
REMARK    2  A    between atoms: N_5  and  C_6
REMARK    3  A    between atoms: C_6  and  C_7
REMARK                            x       y       z     vdW  Elec       q    Type
REMARK                         _______ _______ _______ _____ _____    ______ ____
ROOT
ATOM      1  C   UNL     1       7.747  -4.927  25.324  0.00  0.00    +0.000 C 
ATOM      2  C   UNL     1       9.028  -4.324  24.755  0.00  0.00    +0.000 C 
ATOM      3  N   UNL     1       8.781  -3.473  23.690  0.00  0.00    +0.000 NA
ATOM      4  C   UNL     1       7.705  -3.852  22.879  0.00  0.00    +0.000 C 
ATOM      5  C   UNL     1       6.444  -4.166  23.648  0.00  0.00    +0.000 C 
ATOM      6  O   UNL     1       6.703  -4.034  25.021  0.00  0.00    +0.000 OA
ENDROOT
BRANCH   1   8
ATOM      7  O   UNL     1       7.077  -6.104  27.267  0.00  0.00    +0.000 OA
ATOM      8  C   UNL     1       7.866  -5.031  26.831  0.00  0.00    +0.000 C 
ENDBRANCH   1   8
BRANCH   3   9
ATOM      9  C   UNL     1       8.961  -2.143  23.891  0.00  0.00    +0.000 C 
BRANCH   9  10
ATOM     10  C   UNL     1       9.898  -1.317  23.239  0.00  0.00    +0.000 A 
ATOM     11  C   UNL     1       9.485  -0.887  21.712  0.00  0.00    +0.000 A 
ATOM     12  C   UNL     1       9.634   0.601  21.575  0.00  0.00    +0.000 A 
ATOM     13  C   UNL     1      10.086   1.743  22.389  0.00  0.00    +0.000 A 
ATOM     14  C   UNL     1      10.423   1.292  23.879  0.00  0.00    +0.000 A 
ATOM     15  C   UNL     1      10.424  -0.147  23.983  0.00  0.00    +0.000 A 
ENDBRANCH   9  10
ENDBRANCH   3   9
TORSDOF 3
ENDMDL
MODEL 4
REMARK VINA RESULT:      -5.3      2.164      3.234
REMARK  Name = 
REMARK  3 active torsions:
REMARK  status: ('A' for Active; 'I' for Inactive)
REMARK    1  A    between atoms: C_2  and  C_3
REMARK    2  A    between atoms: N_5  and  C_6
REMARK    3  A    between atoms: C_6  and  C_7
REMARK                            x       y       z     vdW  Elec       q    Type
REMARK                         _______ _______ _______ _____ _____    ______ ____
ROOT
ATOM      1  C   UNL     1       6.745   0.868  19.588  0.00  0.00    +0.000 C 
ATOM      2  C   UNL     1       7.788  -0.203  19.892  0.00  0.00    +0.000 C 
ATOM      3  N   UNL     1       8.378  -0.025  21.134  0.00  0.00    +0.000 NA
ATOM      4  C   UNL     1       8.540   1.311  21.516  0.00  0.00    +0.000 C 
ATOM      5  C   UNL     1       7.290   2.144  21.366  0.00  0.00    +0.000 C 
ATOM      6  O   UNL     1       6.272   1.343  20.825  0.00  0.00    +0.000 OA
ENDROOT
BRANCH   1   8
ATOM      7  O   UNL     1       6.094  -0.489  17.760  0.00  0.00    +0.000 OA
ATOM      8  C   UNL     1       5.584   0.242  18.841  0.00  0.00    +0.000 C 
ENDBRANCH   1   8
BRANCH   3   9
ATOM      9  C   UNL     1       8.063  -0.911  22.113  0.00  0.00    +0.000 C 
BRANCH   9  10
ATOM     10  C   UNL     1       8.650  -2.175  22.319  0.00  0.00    +0.000 A 
ATOM     11  C   UNL     1       9.810  -2.211  23.476  0.00  0.00    +0.000 A 
ATOM     12  C   UNL     1       9.519  -3.347  24.414  0.00  0.00    +0.000 A 
ATOM     13  C   UNL     1       8.540  -4.441  24.550  0.00  0.00    +0.000 A 
ATOM     14  C   UNL     1       7.401  -4.337  23.442  0.00  0.00    +0.000 A 
ATOM     15  C   UNL     1       7.746  -3.343  22.453  0.00  0.00    +0.000 A 
ENDBRANCH   9  10
ENDBRANCH   3   9
TORSDOF 3
ENDMDL
MODEL 5
REMARK VINA RESULT:      -5.1      4.210      5.951
REMARK  Name = 
REMARK  3 active torsions:
REMARK  status: ('A' for Active; 'I' for Inactive)
REMARK    1  A    between atoms: C_2  and  C_3
REMARK    2  A    between atoms: N_5  and  C_6
REMARK    3  A    between atoms: C_6  and  C_7
REMARK                            x       y       z     vdW  Elec       q    Type
REMARK                         _______ _______ _______ _____ _____    ______ ____
ROOT
ATOM      1  C   UNL     1       7.027  -3.971  25.687  0.00  0.00    +0.000 C 
ATOM      2  C   UNL     1       7.747  -3.709  24.367  0.00  0.00    +0.000 C 
ATOM      3  N   UNL     1       8.126  -2.383  24.231  0.00  0.00    +0.000 NA
ATOM      4  C   UNL     1       7.241  -1.461  24.799  0.00  0.00    +0.000 C 
ATOM      5  C   UNL     1       6.852  -1.787  26.222  0.00  0.00    +0.000 C 
ATOM      6  O   UNL     1       7.467  -2.992  26.596  0.00  0.00    +0.000 OA
ENDROOT
BRANCH   1   8
ATOM      7  O   UNL     1       7.595  -5.237  27.606  0.00  0.00    +0.000 OA
ATOM      8  C   UNL     1       7.431  -5.332  26.218  0.00  0.00    +0.000 C 
ENDBRANCH   1   8
BRANCH   3   9
ATOM      9  C   UNL     1       9.451  -2.095  24.314  0.00  0.00    +0.000 C 
BRANCH   9  10
ATOM     10  C   UNL     1      10.185  -1.275  23.435  0.00  0.00    +0.000 A 
ATOM     11  C   UNL     1       9.603  -1.219  21.904  0.00  0.00    +0.000 A 
ATOM     12  C   UNL     1       9.484   0.219  21.488  0.00  0.00    +0.000 A 
ATOM     13  C   UNL     1       9.785   1.554  22.035  0.00  0.00    +0.000 A 
ATOM     14  C   UNL     1      10.294   1.459  23.541  0.00  0.00    +0.000 A 
ATOM     15  C   UNL     1      10.550   0.085  23.902  0.00  0.00    +0.000 A 
ENDBRANCH   9  10
ENDBRANCH   3   9
TORSDOF 3
ENDMDL
MODEL 6
REMARK VINA RESULT:      -5.0      3.409      5.643
REMARK  Name = 
REMARK  3 active torsions:
REMARK  status: ('A' for Active; 'I' for Inactive)
REMARK    1  A    between atoms: C_2  and  C_3
REMARK    2  A    between atoms: N_5  and  C_6
REMARK    3  A    between atoms: C_6  and  C_7
REMARK                            x       y       z     vdW  Elec       q    Type
REMARK                         _______ _______ _______ _____ _____    ______ ____
ROOT
ATOM      1  C   UNL     1       9.747  -0.006  22.610  0.00  0.00    +0.000 C 
ATOM      2  C   UNL     1       9.662  -1.383  21.957  0.00  0.00    +0.000 C 
ATOM      3  N   UNL     1       9.258  -2.364  22.849  0.00  0.00    +0.000 NA
ATOM      4  C   UNL     1       9.712  -2.181  24.160  0.00  0.00    +0.000 C 
ATOM      5  C   UNL     1       9.462  -0.795  24.704  0.00  0.00    +0.000 C 
ATOM      6  O   UNL     1       8.861  -0.015  23.703  0.00  0.00    +0.000 OA
ENDROOT
BRANCH   1   8
ATOM      7  O   UNL     1       8.485   0.425  20.653  0.00  0.00    +0.000 OA
ATOM      8  C   UNL     1       9.281   1.047  21.625  0.00  0.00    +0.000 C 
ENDBRANCH   1   8
BRANCH   3   9
ATOM      9  C   UNL     1       8.013  -2.881  22.695  0.00  0.00    +0.000 C 
BRANCH   9  10
ATOM     10  C   UNL     1       7.590  -4.172  23.071  0.00  0.00    +0.000 A 
ATOM     11  C   UNL     1       6.534  -4.208  24.323  0.00  0.00    +0.000 A 
ATOM     12  C   UNL     1       5.363  -5.066  23.940  0.00  0.00    +0.000 A 
ATOM     13  C   UNL     1       4.934  -5.903  22.805  0.00  0.00    +0.000 A 
ATOM     14  C   UNL     1       5.958  -5.796  21.590  0.00  0.00    +0.000 A 
ATOM     15  C   UNL     1       7.153  -5.096  21.996  0.00  0.00    +0.000 A 
ENDBRANCH   9  10
ENDBRANCH   3   9
TORSDOF 3
ENDMDL
MODEL 7
REMARK VINA RESULT:      -5.0      2.685      4.168
REMARK  Name = 
REMARK  3 active torsions:
REMARK  status: ('A' for Active; 'I' for Inactive)
REMARK    1  A    between atoms: C_2  and  C_3
REMARK    2  A    between atoms: N_5  and  C_6
REMARK    3  A    between atoms: C_6  and  C_7
REMARK                            x       y       z     vdW  Elec       q    Type
REMARK                         _______ _______ _______ _____ _____    ______ ____
ROOT
ATOM      1  C   UNL     1       8.633   0.274  20.727  0.00  0.00    +0.000 C 
ATOM      2  C   UNL     1       9.093  -0.977  21.471  0.00  0.00    +0.000 C 
ATOM      3  N   UNL     1       9.545  -0.690  22.750  0.00  0.00    +0.000 NA
ATOM      4  C   UNL     1      10.196   0.541  22.876  0.00  0.00    +0.000 C 
ATOM      5  C   UNL     1       9.431   1.699  22.282  0.00  0.00    +0.000 C 
ATOM      6  O   UNL     1       8.249   1.213  21.701  0.00  0.00    +0.000 OA
ENDROOT
BRANCH   1   8
ATOM      7  O   UNL     1       7.795  -0.025  18.532  0.00  0.00    +0.000 OA
ATOM      8  C   UNL     1       7.420  -0.063  19.882  0.00  0.00    +0.000 C 
ENDBRANCH   1   8
BRANCH   3   9
ATOM      9  C   UNL     1       8.773  -1.088  23.794  0.00  0.00    +0.000 C 
BRANCH   9  10
ATOM     10  C   UNL     1       9.128  -2.020  24.789  0.00  0.00    +0.000 A 
ATOM     11  C   UNL     1       8.227  -1.937  26.156  0.00  0.00    +0.000 A 
ATOM     12  C   UNL     1       7.746  -3.318  26.499  0.00  0.00    +0.000 A 
ATOM     13  C   UNL     1       7.896  -4.695  25.995  0.00  0.00    +0.000 A 
ATOM     14  C   UNL     1       8.729  -4.724  24.638  0.00  0.00    +0.000 A 
ATOM     15  C   UNL     1       9.317  -3.432  24.377  0.00  0.00    +0.000 A 
ENDBRANCH   9  10
ENDBRANCH   3   9
TORSDOF 3
ENDMDL
MODEL 8
REMARK VINA RESULT:      -5.0      3.790      5.997
REMARK  Name = 
REMARK  3 active torsions:
REMARK  status: ('A' for Active; 'I' for Inactive)
REMARK    1  A    between atoms: C_2  and  C_3
REMARK    2  A    between atoms: N_5  and  C_6
REMARK    3  A    between atoms: C_6  and  C_7
REMARK                            x       y       z     vdW  Elec       q    Type
REMARK                         _______ _______ _______ _____ _____    ______ ____
ROOT
ATOM      1  C   UNL     1       7.644  -4.638  24.858  0.00  0.00    +0.000 C 
ATOM      2  C   UNL     1       7.374  -4.686  23.357  0.00  0.00    +0.000 C 
ATOM      3  N   UNL     1       6.714  -3.553  22.906  0.00  0.00    +0.000 NA
ATOM      4  C   UNL     1       5.802  -3.008  23.816  0.00  0.00    +0.000 C 
ATOM      5  C   UNL     1       6.369  -2.810  25.202  0.00  0.00    +0.000 C 
ATOM      6  O   UNL     1       7.691  -3.280  25.224  0.00  0.00    +0.000 OA
ENDROOT
BRANCH   1   8
ATOM      7  O   UNL     1       9.992  -4.391  24.672  0.00  0.00    +0.000 OA
ATOM      8  C   UNL     1       8.998  -5.257  25.145  0.00  0.00    +0.000 C 
ENDBRANCH   1   8
BRANCH   3   9
ATOM      9  C   UNL     1       7.416  -2.679  22.140  0.00  0.00    +0.000 C 
BRANCH   9  10
ATOM     10  C   UNL     1       6.967  -1.426  21.676  0.00  0.00    +0.000 A 
ATOM     11  C   UNL     1       8.147  -0.304  21.488  0.00  0.00    +0.000 A 
ATOM     12  C   UNL     1       8.016   0.307  20.122  0.00  0.00    +0.000 A 
ATOM     13  C   UNL     1       7.118   0.220  18.957  0.00  0.00    +0.000 A 
ATOM     14  C   UNL     1       6.022  -0.919  19.157  0.00  0.00    +0.000 A 
ATOM     15  C   UNL     1       6.045  -1.410  20.514  0.00  0.00    +0.000 A 
ENDBRANCH   9  10
ENDBRANCH   3   9
TORSDOF 3
ENDMDL
MODEL 9
REMARK VINA RESULT:      -4.8      3.445      4.869
REMARK  Name = 
REMARK  3 active torsions:
REMARK  status: ('A' for Active; 'I' for Inactive)
REMARK    1  A    between atoms: C_2  and  C_3
REMARK    2  A    between atoms: N_5  and  C_6
REMARK    3  A    between atoms: C_6  and  C_7
REMARK                            x       y       z     vdW  Elec       q    Type
REMARK                         _______ _______ _______ _____ _____    ______ ____
ROOT
ATOM      1  C   UNL     1       7.315  -4.422  23.765  0.00  0.00    +0.000 C 
ATOM      2  C   UNL     1       8.017  -3.556  22.722  0.00  0.00    +0.000 C 
ATOM      3  N   UNL     1       7.262  -2.450  22.364  0.00  0.00    +0.000 NA
ATOM      4  C   UNL     1       5.880  -2.666  22.353  0.00  0.00    +0.000 C 
ATOM      5  C   UNL     1       5.355  -3.316  23.611  0.00  0.00    +0.000 C 
ATOM      6  O   UNL     1       6.433  -3.581  24.469  0.00  0.00    +0.000 OA
ENDROOT
BRANCH   1   8
ATOM      7  O   UNL     1       7.671  -5.395  25.894  0.00  0.00    +0.000 OA
ATOM      8  C   UNL     1       8.340  -4.964  24.740  0.00  0.00    +0.000 C 
ENDBRANCH   1   8
BRANCH   3   9
ATOM      9  C   UNL     1       7.692  -1.232  22.783  0.00  0.00    +0.000 C 
BRANCH   9  10
ATOM     10  C   UNL     1       9.015  -0.751  22.736  0.00  0.00    +0.000 A 
ATOM     11  C   UNL     1       9.311   0.322  21.533  0.00  0.00    +0.000 A 
ATOM     12  C   UNL     1       9.996   1.524  22.119  0.00  0.00    +0.000 A 
ATOM     13  C   UNL     1      10.509   1.973  23.425  0.00  0.00    +0.000 A 
ATOM     14  C   UNL     1      10.152   0.930  24.574  0.00  0.00    +0.000 A 
ATOM     15  C   UNL     1       9.626  -0.288  24.006  0.00  0.00    +0.000 A 
ENDBRANCH   9  10
ENDBRANCH   3   9
TORSDOF 3
ENDMDL
