MODEL 1
REMARK VINA RESULT:      -6.2      0.000      0.000
REMARK  Name = 
REMARK  2 active torsions:
REMARK  status: ('A' for Active; 'I' for Inactive)
REMARK    1  A    between atoms: C_2  and  C_3
REMARK    2  A    between atoms: C_9  and  C_11
REMARK                            x       y       z     vdW  Elec       q    Type
REMARK                         _______ _______ _______ _____ _____    ______ ____
ROOT
ATOM      1  C   UNL     1      10.170   0.456  22.824  0.00  0.00    +0.000 C 
ATOM      2  O   UNL     1      10.030   0.571  24.030  0.00  0.00    +0.000 OA
ATOM      3  N   UNL     1       9.997  -0.760  22.215  0.00  0.00    +0.000 N 
ATOM      4  C   UNL     1       8.780  -0.864  21.368  0.00  0.00    +0.000 C 
ATOM      5  C   UNL     1       7.693  -1.507  22.217  0.00  0.00    +0.000 C 
ATOM      6  C   UNL     1       7.908  -1.250  23.684  0.00  0.00    +0.000 C 
ATOM      7  C   UNL     1       9.187  -1.823  24.204  0.00  0.00    +0.000 C 
ATOM      8  C   UNL     1      10.221  -1.946  23.079  0.00  0.00    +0.000 C 
ENDROOT
BRANCH   7   9
ATOM      9  C   UNL     1       9.068  -3.107  24.864  0.00  0.00    +0.000 C 
ATOM     10  N   UNL     1       9.069  -4.303  24.201  0.00  0.00    +0.000 NA
ATOM     11  C   UNL     1       8.315  -5.161  24.406  0.00  0.00    +0.000 C 
ATOM     12  C   UNL     1       7.568  -5.287  23.010  0.00  0.00    +0.000 C 
ATOM     13  C   UNL     1       6.051  -5.376  23.354  0.00  0.00    +0.000 C 
ATOM     14  C   UNL     1       5.437  -5.152  24.732  0.00  0.00    +0.000 C 
ATOM     15  C   UNL     1       6.265  -5.066  25.997  0.00  0.00    +0.000 C 
ATOM     16  C   UNL     1       7.653  -4.965  25.663  0.00  0.00    +0.000 C 
ATOM     17  S   UNL     1       7.701  -3.346  25.713  0.00  0.00    +0.000 S 
ENDBRANCH   7   9
BRANCH   1  19
ATOM     18 CL   UNL     1       8.413   2.493  22.715  0.00  0.00    +0.000 Cl
ATOM     19  C   UNL     1       9.769   1.633  21.928  0.00  0.00    +0.000 C 
ENDBRANCH   1  19
TORSDOF 2
ENDMDL
MODEL 2
REMARK VINA RESULT:      -6.2      3.095      5.875
REMARK  Name = 
REMARK  2 active torsions:
REMARK  status: ('A' for Active; 'I' for Inactive)
REMARK    1  A    between atoms: C_2  and  C_3
REMARK    2  A    between atoms: C_9  and  C_11
REMARK                            x       y       z     vdW  Elec       q    Type
REMARK                         _______ _______ _______ _____ _____    ______ ____
ROOT
ATOM      1  C   UNL     1       7.103  -5.024  23.905  0.00  0.00    +0.000 C 
ATOM      2  O   UNL     1       8.205  -5.215  23.420  0.00  0.00    +0.000 OA
ATOM      3  N   UNL     1       6.749  -3.780  24.361  0.00  0.00    +0.000 N 
ATOM      4  C   UNL     1       5.725  -3.085  23.539  0.00  0.00    +0.000 C 
ATOM      5  C   UNL     1       6.465  -2.159  22.585  0.00  0.00    +0.000 C 
ATOM      6  C   UNL     1       7.855  -2.656  22.293  0.00  0.00    +0.000 C 
ATOM      7  C   UNL     1       8.725  -2.727  23.507  0.00  0.00    +0.000 C 
ATOM      8  C   UNL     1       7.875  -2.905  24.771  0.00  0.00    +0.000 C 
ENDROOT
BRANCH   7   9
ATOM      9  C   UNL     1       9.610  -1.597  23.701  0.00  0.00    +0.000 C 
ATOM     10  N   UNL     1       9.346  -0.566  24.561  0.00  0.00    +0.000 NA
ATOM     11  C   UNL     1       9.473   0.555  24.289  0.00  0.00    +0.000 C 
ATOM     12  C   UNL     1       7.989   1.101  24.430  0.00  0.00    +0.000 C 
ATOM     13  C   UNL     1       7.743   1.974  23.163  0.00  0.00    +0.000 C 
ATOM     14  C   UNL     1       8.670   2.070  21.955  0.00  0.00    +0.000 C 
ATOM     15  C   UNL     1      10.080   1.519  21.955  0.00  0.00    +0.000 C 
ATOM     16  C   UNL     1      10.282   0.704  23.115  0.00  0.00    +0.000 C 
ATOM     17  S   UNL     1       9.908  -0.693  22.383  0.00  0.00    +0.000 S 
ENDBRANCH   7   9
BRANCH   1  19
ATOM     18 CL   UNL     1       6.222  -6.137  21.617  0.00  0.00    +0.000 Cl
ATOM     19  C   UNL     1       5.914  -5.815  23.349  0.00  0.00    +0.000 C 
ENDBRANCH   1  19
TORSDOF 2
ENDMDL
MODEL 3
REMARK VINA RESULT:      -6.2      3.128      5.853
REMARK  Name = 
REMARK  2 active torsions:
REMARK  status: ('A' for Active; 'I' for Inactive)
REMARK    1  A    between atoms: C_2  and  C_3
REMARK    2  A    between atoms: C_9  and  C_11
REMARK                            x       y       z     vdW  Elec       q    Type
REMARK                         _______ _______ _______ _____ _____    ______ ____
ROOT
ATOM      1  C   UNL     1       8.580  -4.682  25.337  0.00  0.00    +0.000 C 
ATOM      2  O   UNL     1       8.081  -5.101  24.306  0.00  0.00    +0.000 OA
ATOM      3  N   UNL     1       9.162  -3.441  25.377  0.00  0.00    +0.000 N 
ATOM      4  C   UNL     1       8.412  -2.428  26.163  0.00  0.00    +0.000 C 
ATOM      5  C   UNL     1       7.563  -1.633  25.184  0.00  0.00    +0.000 C 
ATOM      6  C   UNL     1       7.227  -2.439  23.958  0.00  0.00    +0.000 C 
ATOM      7  C   UNL     1       8.430  -2.852  23.172  0.00  0.00    +0.000 C 
ATOM      8  C   UNL     1       9.665  -2.930  24.077  0.00  0.00    +0.000 C 
ENDROOT
BRANCH   7   9
ATOM      9  C   UNL     1       8.744  -2.012  22.034  0.00  0.00    +0.000 C 
ATOM     10  N   UNL     1       9.779  -1.118  22.015  0.00  0.00    +0.000 NA
ATOM     11  C   UNL     1       9.689  -0.027  21.628  0.00  0.00    +0.000 C 
ATOM     12  C   UNL     1      10.025   0.815  22.931  0.00  0.00    +0.000 C 
ATOM     13  C   UNL     1       8.941   1.932  22.997  0.00  0.00    +0.000 C 
ATOM     14  C   UNL     1       7.702   2.024  22.112  0.00  0.00    +0.000 C 
ATOM     15  C   UNL     1       7.509   1.168  20.878  0.00  0.00    +0.000 C 
ATOM     16  C   UNL     1       8.500   0.135  20.843  0.00  0.00    +0.000 C 
ATOM     17  S   UNL     1       7.576  -0.982  21.566  0.00  0.00    +0.000 S 
ENDBRANCH   7   9
BRANCH   1  19
ATOM     18 CL   UNL     1       6.206  -5.409  26.380  0.00  0.00    +0.000 Cl
ATOM     19  C   UNL     1       7.940  -5.082  26.672  0.00  0.00    +0.000 C 
ENDBRANCH   1  19
TORSDOF 2
ENDMDL
MODEL 4
REMARK VINA RESULT:      -6.1      3.398      6.043
REMARK  Name = 
REMARK  2 active torsions:
REMARK  status: ('A' for Active; 'I' for Inactive)
REMARK    1  A    between atoms: C_2  and  C_3
REMARK    2  A    between atoms: C_9  and  C_11
REMARK                            x       y       z     vdW  Elec       q    Type
REMARK                         _______ _______ _______ _____ _____    ______ ____
ROOT
ATOM      1  C   UNL     1       5.421  -4.415  22.658  0.00  0.00    +0.000 C 
ATOM      2  O   UNL     1       5.412  -3.834  21.586  0.00  0.00    +0.000 OA
ATOM      3  N   UNL     1       6.453  -4.233  23.542  0.00  0.00    +0.000 N 
ATOM      4  C   UNL     1       6.097  -3.468  24.765  0.00  0.00    +0.000 C 
ATOM      5  C   UNL     1       6.490  -2.019  24.521  0.00  0.00    +0.000 C 
ATOM      6  C   UNL     1       6.480  -1.679  23.054  0.00  0.00    +0.000 C 
ATOM      7  C   UNL     1       7.458  -2.479  22.256  0.00  0.00    +0.000 C 
ATOM      8  C   UNL     1       7.745  -3.821  22.940  0.00  0.00    +0.000 C 
ENDROOT
BRANCH   7   9
ATOM      9  C   UNL     1       8.720  -1.822  21.982  0.00  0.00    +0.000 C 
ATOM     10  N   UNL     1       9.719  -1.683  22.906  0.00  0.00    +0.000 NA
ATOM     11  C   UNL     1      10.296  -0.695  23.096  0.00  0.00    +0.000 C 
ATOM     12  C   UNL     1       9.930  -0.381  24.608  0.00  0.00    +0.000 C 
ATOM     13  C   UNL     1       9.563   1.132  24.644  0.00  0.00    +0.000 C 
ATOM     14  C   UNL     1       9.380   2.033  23.427  0.00  0.00    +0.000 C 
ATOM     15  C   UNL     1       9.789   1.618  22.029  0.00  0.00    +0.000 C 
ATOM     16  C   UNL     1      10.103   0.221  22.010  0.00  0.00    +0.000 C 
ATOM     17  S   UNL     1       8.626  -0.258  21.547  0.00  0.00    +0.000 S 
ENDBRANCH   7   9
BRANCH   1  19
ATOM     18 CL   UNL     1       4.059  -6.390  23.882  0.00  0.00    +0.000 Cl
ATOM     19  C   UNL     1       4.081  -4.681  23.354  0.00  0.00    +0.000 C 
ENDBRANCH   1  19
TORSDOF 2
ENDMDL
MODEL 5
REMARK VINA RESULT:      -5.9      2.905      6.137
REMARK  Name = 
REMARK  2 active torsions:
REMARK  status: ('A' for Active; 'I' for Inactive)
REMARK    1  A    between atoms: C_2  and  C_3
REMARK    2  A    between atoms: C_9  and  C_11
REMARK                            x       y       z     vdW  Elec       q    Type
REMARK                         _______ _______ _______ _____ _____    ______ ____
ROOT
ATOM      1  C   UNL     1       7.454  -3.992  24.101  0.00  0.00    +0.000 C 
ATOM      2  O   UNL     1       6.399  -3.423  24.322  0.00  0.00    +0.000 OA
ATOM      3  N   UNL     1       8.433  -3.382  23.358  0.00  0.00    +0.000 N 
ATOM      4  C   UNL     1       9.633  -2.970  24.130  0.00  0.00    +0.000 C 
ATOM      5  C   UNL     1       9.456  -1.502  24.490  0.00  0.00    +0.000 C 
ATOM      6  C   UNL     1       8.003  -1.119  24.564  0.00  0.00    +0.000 C 
ATOM      7  C   UNL     1       7.281  -1.284  23.266  0.00  0.00    +0.000 C 
ATOM      8  C   UNL     1       7.960  -2.352  22.401  0.00  0.00    +0.000 C 
ENDROOT
BRANCH   7   9
ATOM      9  C   UNL     1       7.137  -0.075  22.479  0.00  0.00    +0.000 C 
ATOM     10  N   UNL     1       8.087   0.376  21.604  0.00  0.00    +0.000 NA
ATOM     11  C   UNL     1       8.444   1.479  21.545  0.00  0.00    +0.000 C 
ATOM     12  C   UNL     1       9.982   1.348  21.917  0.00  0.00    +0.000 C 
ATOM     13  C   UNL     1      10.262   2.483  22.946  0.00  0.00    +0.000 C 
ATOM     14  C   UNL     1       9.207   3.364  23.608  0.00  0.00    +0.000 C 
ATOM     15  C   UNL     1       7.766   3.409  23.144  0.00  0.00    +0.000 C 
ATOM     16  C   UNL     1       7.521   2.348  22.214  0.00  0.00    +0.000 C 
ATOM     17  S   UNL     1       6.964   1.305  23.322  0.00  0.00    +0.000 S 
ENDBRANCH   7   9
BRANCH   1  19
ATOM     18 CL   UNL     1       7.538  -4.283  26.777  0.00  0.00    +0.000 Cl
ATOM     19  C   UNL     1       8.019  -4.925  25.178  0.00  0.00    +0.000 C 
ENDBRANCH   1  19
TORSDOF 2
ENDMDL
MODEL 6
REMARK VINA RESULT:      -5.9      1.264      1.483
REMARK  Name = 
REMARK  2 active torsions:
REMARK  status: ('A' for Active; 'I' for Inactive)
REMARK    1  A    between atoms: C_2  and  C_3
REMARK    2  A    between atoms: C_9  and  C_11
REMARK                            x       y       z     vdW  Elec       q    Type
REMARK                         _______ _______ _______ _____ _____    ______ ____
ROOT
ATOM      1  C   UNL     1       8.577   1.300  23.742  0.00  0.00    +0.000 C 
ATOM      2  O   UNL     1       7.650   0.761  24.322  0.00  0.00    +0.000 OA
ATOM      3  N   UNL     1       9.728   0.606  23.471  0.00  0.00    +0.000 N 
ATOM      4  C   UNL     1       9.942   0.291  22.035  0.00  0.00    +0.000 C 
ATOM      5  C   UNL     1       9.429  -1.121  21.801  0.00  0.00    +0.000 C 
ATOM      6  C   UNL     1       8.356  -1.495  22.787  0.00  0.00    +0.000 C 
ATOM      7  C   UNL     1       8.828  -1.490  24.205  0.00  0.00    +0.000 C 
ATOM      8  C   UNL     1      10.015  -0.534  24.377  0.00  0.00    +0.000 C 
ENDROOT
BRANCH   7   9
ATOM      9  C   UNL     1       9.198  -2.785  24.739  0.00  0.00    +0.000 C 
ATOM     10  N   UNL     1       9.025  -3.962  24.063  0.00  0.00    +0.000 NA
ATOM     11  C   UNL     1       8.572  -4.921  24.534  0.00  0.00    +0.000 C 
ATOM     12  C   UNL     1       7.268  -5.138  23.655  0.00  0.00    +0.000 C 
ATOM     13  C   UNL     1       6.127  -5.448  24.670  0.00  0.00    +0.000 C 
ATOM     14  C   UNL     1       6.230  -5.330  26.187  0.00  0.00    +0.000 C 
ATOM     15  C   UNL     1       7.547  -5.140  26.909  0.00  0.00    +0.000 C 
ATOM     16  C   UNL     1       8.579  -4.836  25.965  0.00  0.00    +0.000 C 
ATOM     17  S   UNL     1       8.449  -3.228  26.113  0.00  0.00    +0.000 S 
ENDBRANCH   7   9
BRANCH   1  19
ATOM     18 CL   UNL     1       6.728   1.892  21.875  0.00  0.00    +0.000 Cl
ATOM     19  C   UNL     1       8.256   2.357  22.679  0.00  0.00    +0.000 C 
ENDBRANCH   1  19
TORSDOF 2
ENDMDL
MODEL 7
REMARK VINA RESULT:      -5.9      1.809      2.105
REMARK  Name = 
REMARK  2 active torsions:
REMARK  status: ('A' for Active; 'I' for Inactive)
REMARK    1  A    between atoms: C_2  and  C_3
REMARK    2  A    between atoms: C_9  and  C_11
REMARK                            x       y       z     vdW  Elec       q    Type
REMARK                         _______ _______ _______ _____ _____    ______ ____
ROOT
ATOM      1  C   UNL     1      10.437   1.660  23.487  0.00  0.00    +0.000 C 
ATOM      2  O   UNL     1      10.493   0.996  24.509  0.00  0.00    +0.000 OA
ATOM      3  N   UNL     1       9.961   1.111  22.324  0.00  0.00    +0.000 N 
ATOM      4  C   UNL     1       8.638   1.628  21.889  0.00  0.00    +0.000 C 
ATOM      5  C   UNL     1       7.584   0.654  22.391  0.00  0.00    +0.000 C 
ATOM      6  C   UNL     1       8.048  -0.084  23.619  0.00  0.00    +0.000 C 
ATOM      7  C   UNL     1       9.262  -0.923  23.382  0.00  0.00    +0.000 C 
ATOM      8  C   UNL     1      10.086  -0.364  22.216  0.00  0.00    +0.000 C 
ENDROOT
BRANCH   7   9
ATOM      9  C   UNL     1       9.006  -2.327  23.135  0.00  0.00    +0.000 C 
ATOM     10  N   UNL     1       8.073  -2.782  22.243  0.00  0.00    +0.000 NA
ATOM     11  C   UNL     1       7.314  -3.629  22.473  0.00  0.00    +0.000 C 
ATOM     12  C   UNL     1       5.924  -2.874  22.334  0.00  0.00    +0.000 C 
ATOM     13  C   UNL     1       5.085  -3.310  23.572  0.00  0.00    +0.000 C 
ATOM     14  C   UNL     1       5.606  -4.110  24.763  0.00  0.00    +0.000 C 
ATOM     15  C   UNL     1       6.953  -4.801  24.762  0.00  0.00    +0.000 C 
ATOM     16  C   UNL     1       7.718  -4.373  23.629  0.00  0.00    +0.000 C 
ATOM     17  S   UNL     1       8.503  -3.194  24.416  0.00  0.00    +0.000 S 
ENDBRANCH   7   9
BRANCH   1  19
ATOM     18 CL   UNL     1      11.656   4.056  23.330  0.00  0.00    +0.000 Cl
ATOM     19  C   UNL     1      10.134   3.158  23.606  0.00  0.00    +0.000 C 
ENDBRANCH   1  19
TORSDOF 2
ENDMDL
MODEL 8
REMARK VINA RESULT:      -5.8      2.227      2.837
REMARK  Name = 
REMARK  2 active torsions:
REMARK  status: ('A' for Active; 'I' for Inactive)
REMARK    1  A    between atoms: C_2  and  C_3
REMARK    2  A    between atoms: C_9  and  C_11
REMARK                            x       y       z     vdW  Elec       q    Type
REMARK                         _______ _______ _______ _____ _____    ______ ____
ROOT
ATOM      1  C   UNL     1       6.719  -0.071  20.706  0.00  0.00    +0.000 C 
ATOM      2  O   UNL     1       6.792  -1.285  20.627  0.00  0.00    +0.000 OA
ATOM      3  N   UNL     1       7.296   0.596  21.756  0.00  0.00    +0.000 N 
ATOM      4  C   UNL     1       8.493   1.401  21.399  0.00  0.00    +0.000 C 
ATOM      5  C   UNL     1       9.717   0.549  21.698  0.00  0.00    +0.000 C 
ATOM      6  C   UNL     1       9.404  -0.921  21.619  0.00  0.00    +0.000 C 
ATOM      7  C   UNL     1       8.379  -1.363  22.613  0.00  0.00    +0.000 C 
ATOM      8  C   UNL     1       7.464  -0.195  23.001  0.00  0.00    +0.000 C 
ENDROOT
BRANCH   7   9
ATOM      9  C   UNL     1       8.907  -1.957  23.824  0.00  0.00    +0.000 C 
ATOM     10  N   UNL     1       9.308  -3.262  23.915  0.00  0.00    +0.000 NA
ATOM     11  C   UNL     1       9.020  -3.971  24.788  0.00  0.00    +0.000 C 
ATOM     12  C   UNL     1       8.194  -5.101  24.039  0.00  0.00    +0.000 C 
ATOM     13  C   UNL     1       6.923  -5.336  24.909  0.00  0.00    +0.000 C 
ATOM     14  C   UNL     1       6.485  -4.480  26.094  0.00  0.00    +0.000 C 
ATOM     15  C   UNL     1       7.381  -3.439  26.731  0.00  0.00    +0.000 C 
ATOM     16  C   UNL     1       8.534  -3.222  25.910  0.00  0.00    +0.000 C 
ATOM     17  S   UNL     1       7.909  -1.960  25.108  0.00  0.00    +0.000 S 
ENDBRANCH   7   9
BRANCH   1  19
ATOM     18 CL   UNL     1       5.043   1.271  19.080  0.00  0.00    +0.000 Cl
ATOM     19  C   UNL     1       6.721   0.746  19.409  0.00  0.00    +0.000 C 
ENDBRANCH   1  19
TORSDOF 2
ENDMDL
MODEL 9
REMARK VINA RESULT:      -5.8      1.384      1.876
REMARK  Name = 
REMARK  2 active torsions:
REMARK  status: ('A' for Active; 'I' for Inactive)
REMARK    1  A    between atoms: C_2  and  C_3
REMARK    2  A    between atoms: C_9  and  C_11
REMARK                            x       y       z     vdW  Elec       q    Type
REMARK                         _______ _______ _______ _____ _____    ______ ____
ROOT
ATOM      1  C   UNL     1       8.262   0.325  22.249  0.00  0.00    +0.000 C 
ATOM      2  O   UNL     1       9.022  -0.491  21.758  0.00  0.00    +0.000 OA
ATOM      3  N   UNL     1       7.683   0.094  23.471  0.00  0.00    +0.000 N 
ATOM      4  C   UNL     1       8.186   0.957  24.571  0.00  0.00    +0.000 C 
ATOM      5  C   UNL     1       9.264   0.173  25.304  0.00  0.00    +0.000 C 
ATOM      6  C   UNL     1       9.923  -0.839  24.406  0.00  0.00    +0.000 C 
ATOM      7  C   UNL     1       8.979  -1.878  23.890  0.00  0.00    +0.000 C 
ATOM      8  C   UNL     1       7.546  -1.334  23.853  0.00  0.00    +0.000 C 
ENDROOT
BRANCH   7   9
ATOM      9  C   UNL     1       8.979  -3.130  24.619  0.00  0.00    +0.000 C 
ATOM     10  N   UNL     1       8.990  -4.358  24.015  0.00  0.00    +0.000 NA
ATOM     11  C   UNL     1       8.299  -5.239  24.321  0.00  0.00    +0.000 C 
ATOM     12  C   UNL     1       7.453  -5.472  22.998  0.00  0.00    +0.000 C 
ATOM     13  C   UNL     1       5.975  -5.615  23.467  0.00  0.00    +0.000 C 
ATOM     14  C   UNL     1       5.459  -5.350  24.877  0.00  0.00    +0.000 C 
ATOM     15  C   UNL     1       6.377  -5.159  26.066  0.00  0.00    +0.000 C 
ATOM     16  C   UNL     1       7.728  -5.009  25.616  0.00  0.00    +0.000 C 
ATOM     17  S   UNL     1       7.696  -3.390  25.585  0.00  0.00    +0.000 S 
ENDBRANCH   7   9
BRANCH   1  19
ATOM     18 CL   UNL     1      10.288   2.081  22.001  0.00  0.00    +0.000 Cl
ATOM     19  C   UNL     1       8.520   1.813  21.986  0.00  0.00    +0.000 C 
ENDBRANCH   1  19
TORSDOF 2
ENDMDL
