MODEL 1
REMARK VINA RESULT:      -5.6      0.000      0.000
REMARK  Name = 
REMARK  4 active torsions:
REMARK  status: ('A' for Active; 'I' for Inactive)
REMARK    1  A    between atoms: C_6  and  C_7
REMARK    2  A    between atoms: C_7  and  N_8
REMARK    3  A    between atoms: N_8  and  C_9
REMARK    4  A    between atoms: C_9  and  C_10
REMARK                            x       y       z     vdW  Elec       q    Type
REMARK                         _______ _______ _______ _____ _____    ______ ____
ROOT
ATOM      1  C   UNL     1      10.230  -0.245  22.426  0.00  0.00    +0.000 C 
ENDROOT
BRANCH   1   7
ATOM      2  F   UNL     1       7.480   0.356  18.563  0.00  0.00    +0.000 F 
ATOM      3  C   UNL     1       7.321  -0.030  19.837  0.00  0.00    +0.000 A 
ATOM      4  C   UNL     1       6.480   1.292  20.370  0.00  0.00    +0.000 A 
ATOM      5  C   UNL     1       7.245   1.927  21.483  0.00  0.00    +0.000 A 
ATOM      6  C   UNL     1       8.543   1.690  22.199  0.00  0.00    +0.000 A 
ATOM      7  C   UNL     1       9.338   0.501  21.599  0.00  0.00    +0.000 A 
ATOM      8  C   UNL     1       8.614  -0.109  20.475  0.00  0.00    +0.000 A 
ENDBRANCH   1   7
BRANCH   1   9
ATOM      9  N   UNL     1      10.205  -1.662  22.317  0.00  0.00    +0.000 NA
BRANCH   9  10
ATOM     10  C   UNL     1       9.934  -2.211  23.624  0.00  0.00    +0.000 C 
BRANCH  10  11
ATOM     11  C   UNL     1       8.813  -3.181  23.561  0.00  0.00    +0.000 A 
ATOM     12  C   UNL     1       7.682  -2.976  22.621  0.00  0.00    +0.000 A 
ATOM     13  C   UNL     1       6.956  -4.326  22.683  0.00  0.00    +0.000 A 
ATOM     14  C   UNL     1       7.833  -5.116  23.584  0.00  0.00    +0.000 A 
ATOM     15  O   UNL     1       8.937  -4.446  24.085  0.00  0.00    +0.000 OA
ENDBRANCH  10  11
ENDBRANCH   9  10
ENDBRANCH   1   9
TORSDOF 4
ENDMDL
MODEL 2
REMARK VINA RESULT:      -5.3      2.262      3.283
REMARK  Name = 
REMARK  4 active torsions:
REMARK  status: ('A' for Active; 'I' for Inactive)
REMARK    1  A    between atoms: C_6  and  C_7
REMARK    2  A    between atoms: C_7  and  N_8
REMARK    3  A    between atoms: N_8  and  C_9
REMARK    4  A    between atoms: C_9  and  C_10
REMARK                            x       y       z     vdW  Elec       q    Type
REMARK                         _______ _______ _______ _____ _____    ______ ____
ROOT
ATOM      1  C   UNL     1       8.907  -1.874  21.972  0.00  0.00    +0.000 C 
ENDROOT
BRANCH   1   7
ATOM      2  F   UNL     1      10.863   2.481  21.734  0.00  0.00    +0.000 F 
ATOM      3  C   UNL     1       9.810   1.903  22.329  0.00  0.00    +0.000 A 
ATOM      4  C   UNL     1      10.359   1.983  23.888  0.00  0.00    +0.000 A 
ATOM      5  C   UNL     1      10.431   0.597  24.439  0.00  0.00    +0.000 A 
ATOM      6  C   UNL     1      10.161  -0.795  23.949  0.00  0.00    +0.000 A 
ATOM      7  C   UNL     1       9.743  -0.823  22.455  0.00  0.00    +0.000 A 
ATOM      8  C   UNL     1       9.706   0.532  21.889  0.00  0.00    +0.000 A 
ENDBRANCH   1   7
BRANCH   1   9
ATOM      9  N   UNL     1       7.780  -2.237  22.757  0.00  0.00    +0.000 NA
BRANCH   9  10
ATOM     10  C   UNL     1       7.744  -3.677  22.858  0.00  0.00    +0.000 C 
BRANCH  10  11
ATOM     11  C   UNL     1       8.224  -4.119  24.190  0.00  0.00    +0.000 A 
ATOM     12  C   UNL     1       7.286  -4.707  25.180  0.00  0.00    +0.000 A 
ATOM     13  C   UNL     1       8.240  -5.276  26.237  0.00  0.00    +0.000 A 
ATOM     14  C   UNL     1       9.573  -4.997  25.644  0.00  0.00    +0.000 A 
ATOM     15  O   UNL     1       9.561  -4.334  24.429  0.00  0.00    +0.000 OA
ENDBRANCH  10  11
ENDBRANCH   9  10
ENDBRANCH   1   9
TORSDOF 4
ENDMDL
MODEL 3
REMARK VINA RESULT:      -5.3      1.473      1.793
REMARK  Name = 
REMARK  4 active torsions:
REMARK  status: ('A' for Active; 'I' for Inactive)
REMARK    1  A    between atoms: C_6  and  C_7
REMARK    2  A    between atoms: C_7  and  N_8
REMARK    3  A    between atoms: N_8  and  C_9
REMARK    4  A    between atoms: C_9  and  C_10
REMARK                            x       y       z     vdW  Elec       q    Type
REMARK                         _______ _______ _______ _____ _____    ______ ____
ROOT
ATOM      1  C   UNL     1      10.350  -1.108  22.276  0.00  0.00    +0.000 C 
ENDROOT
BRANCH   1   7
ATOM      2  F   UNL     1       7.483   0.661  18.884  0.00  0.00    +0.000 F 
ATOM      3  C   UNL     1       7.375   0.268  20.161  0.00  0.00    +0.000 A 
ATOM      4  C   UNL     1       7.129   1.759  20.837  0.00  0.00    +0.000 A 
ATOM      5  C   UNL     1       8.212   2.015  21.832  0.00  0.00    +0.000 A 
ATOM      6  C   UNL     1       9.431   1.300  22.338  0.00  0.00    +0.000 A 
ATOM      7  C   UNL     1       9.671  -0.046  21.605  0.00  0.00    +0.000 A 
ATOM      8  C   UNL     1       8.633  -0.293  20.595  0.00  0.00    +0.000 A 
ENDBRANCH   1   7
BRANCH   1   9
ATOM      9  N   UNL     1       9.972  -1.393  23.615  0.00  0.00    +0.000 NA
BRANCH   9  10
ATOM     10  C   UNL     1       8.980  -2.441  23.592  0.00  0.00    +0.000 C 
BRANCH  10  11
ATOM     11  C   UNL     1       9.188  -3.383  24.719  0.00  0.00    +0.000 A 
ATOM     12  C   UNL     1       8.353  -3.298  25.945  0.00  0.00    +0.000 A 
ATOM     13  C   UNL     1       8.700  -4.605  26.668  0.00  0.00    +0.000 A 
ATOM     14  C   UNL     1       9.613  -5.269  25.703  0.00  0.00    +0.000 A 
ATOM     15  O   UNL     1       9.884  -4.556  24.547  0.00  0.00    +0.000 OA
ENDBRANCH  10  11
ENDBRANCH   9  10
ENDBRANCH   1   9
TORSDOF 4
ENDMDL
MODEL 4
REMARK VINA RESULT:      -5.2      1.867      2.921
REMARK  Name = 
REMARK  4 active torsions:
REMARK  status: ('A' for Active; 'I' for Inactive)
REMARK    1  A    between atoms: C_6  and  C_7
REMARK    2  A    between atoms: C_7  and  N_8
REMARK    3  A    between atoms: N_8  and  C_9
REMARK    4  A    between atoms: C_9  and  C_10
REMARK                            x       y       z     vdW  Elec       q    Type
REMARK                         _______ _______ _______ _____ _____    ______ ____
ROOT
ATOM      1  C   UNL     1       8.888  -2.877  24.166  0.00  0.00    +0.000 C 
ENDROOT
BRANCH   1   7
ATOM      2  F   UNL     1       6.793  -0.996  20.304  0.00  0.00    +0.000 F 
ATOM      3  C   UNL     1       7.216  -0.571  21.503  0.00  0.00    +0.000 A 
ATOM      4  C   UNL     1       8.496   0.340  20.980  0.00  0.00    +0.000 A 
ATOM      5  C   UNL     1       9.744  -0.190  21.605  0.00  0.00    +0.000 A 
ATOM      6  C   UNL     1      10.119  -1.308  22.534  0.00  0.00    +0.000 A 
ATOM      7  C   UNL     1       8.901  -2.189  22.916  0.00  0.00    +0.000 A 
ATOM      8  C   UNL     1       7.671  -1.702  22.276  0.00  0.00    +0.000 A 
ENDBRANCH   1   7
BRANCH   1   9
ATOM      9  N   UNL     1       9.117  -4.279  24.152  0.00  0.00    +0.000 NA
BRANCH   9  10
ATOM     10  C   UNL     1       7.929  -4.936  24.646  0.00  0.00    +0.000 C 
BRANCH  10  11
ATOM     11  C   UNL     1       6.954  -5.147  23.548  0.00  0.00    +0.000 A 
ATOM     12  C   UNL     1       7.392  -5.685  22.235  0.00  0.00    +0.000 A 
ATOM     13  C   UNL     1       6.058  -6.012  21.553  0.00  0.00    +0.000 A 
ATOM     14  C   UNL     1       5.071  -5.688  22.616  0.00  0.00    +0.000 A 
ATOM     15  O   UNL     1       5.603  -5.197  23.797  0.00  0.00    +0.000 OA
ENDBRANCH  10  11
ENDBRANCH   9  10
ENDBRANCH   1   9
TORSDOF 4
ENDMDL
MODEL 5
REMARK VINA RESULT:      -5.2      2.563      3.371
REMARK  Name = 
REMARK  4 active torsions:
REMARK  status: ('A' for Active; 'I' for Inactive)
REMARK    1  A    between atoms: C_6  and  C_7
REMARK    2  A    between atoms: C_7  and  N_8
REMARK    3  A    between atoms: N_8  and  C_9
REMARK    4  A    between atoms: C_9  and  C_10
REMARK                            x       y       z     vdW  Elec       q    Type
REMARK                         _______ _______ _______ _____ _____    ______ ____
ROOT
ATOM      1  C   UNL     1      10.003  -2.305  23.485  0.00  0.00    +0.000 C 
ENDROOT
BRANCH   1   7
ATOM      2  F   UNL     1       9.447   2.223  24.913  0.00  0.00    +0.000 F 
ATOM      3  C   UNL     1      10.377   1.494  24.279  0.00  0.00    +0.000 A 
ATOM      4  C   UNL     1      10.217   2.179  22.781  0.00  0.00    +0.000 A 
ATOM      5  C   UNL     1       9.848   1.111  21.806  0.00  0.00    +0.000 A 
ATOM      6  C   UNL     1       9.576  -0.365  21.844  0.00  0.00    +0.000 A 
ATOM      7  C   UNL     1       9.643  -0.939  23.283  0.00  0.00    +0.000 A 
ATOM      8  C   UNL     1       9.967   0.110  24.259  0.00  0.00    +0.000 A 
ENDBRANCH   1   7
BRANCH   1   9
ATOM      9  N   UNL     1       9.027  -3.170  24.050  0.00  0.00    +0.000 NA
BRANCH   9  10
ATOM     10  C   UNL     1       7.755  -2.880  23.433  0.00  0.00    +0.000 C 
BRANCH  10  11
ATOM     11  C   UNL     1       7.183  -4.101  22.814  0.00  0.00    +0.000 A 
ATOM     12  C   UNL     1       6.250  -4.005  21.663  0.00  0.00    +0.000 A 
ATOM     13  C   UNL     1       6.170  -5.460  21.183  0.00  0.00    +0.000 A 
ATOM     14  C   UNL     1       7.136  -6.143  22.083  0.00  0.00    +0.000 A 
ATOM     15  O   UNL     1       7.745  -5.337  23.029  0.00  0.00    +0.000 OA
ENDBRANCH  10  11
ENDBRANCH   9  10
ENDBRANCH   1   9
TORSDOF 4
ENDMDL
MODEL 6
REMARK VINA RESULT:      -5.2      3.031      4.424
REMARK  Name = 
REMARK  4 active torsions:
REMARK  status: ('A' for Active; 'I' for Inactive)
REMARK    1  A    between atoms: C_6  and  C_7
REMARK    2  A    between atoms: C_7  and  N_8
REMARK    3  A    between atoms: N_8  and  C_9
REMARK    4  A    between atoms: C_9  and  C_10
REMARK                            x       y       z     vdW  Elec       q    Type
REMARK                         _______ _______ _______ _____ _____    ______ ____
ROOT
ATOM      1  C   UNL     1       9.266  -0.236  21.550  0.00  0.00    +0.000 C 
ENDROOT
BRANCH   1   7
ATOM      2  F   UNL     1       6.723   0.966  17.685  0.00  0.00    +0.000 F 
ATOM      3  C   UNL     1       6.522   0.302  18.832  0.00  0.00    +0.000 A 
ATOM      4  C   UNL     1       5.524   1.404  19.559  0.00  0.00    +0.000 A 
ATOM      5  C   UNL     1       6.152   1.842  20.841  0.00  0.00    +0.000 A 
ATOM      6  C   UNL     1       7.419   1.561  21.596  0.00  0.00    +0.000 A 
ATOM      7  C   UNL     1       8.361   0.598  20.828  0.00  0.00    +0.000 A 
ATOM      8  C   UNL     1       7.772   0.190  19.544  0.00  0.00    +0.000 A 
ENDBRANCH   1   7
BRANCH   1   9
ATOM      9  N   UNL     1       9.188  -0.225  22.969  0.00  0.00    +0.000 NA
BRANCH   9  10
ATOM     10  C   UNL     1      10.363   0.438  23.481  0.00  0.00    +0.000 C 
BRANCH  10  11
ATOM     11  C   UNL     1      10.027   1.800  23.964  0.00  0.00    +0.000 A 
ATOM     12  C   UNL     1      10.626   3.001  23.329  0.00  0.00    +0.000 A 
ATOM     13  C   UNL     1       9.787   4.139  23.923  0.00  0.00    +0.000 A 
ATOM     14  C   UNL     1       8.787   3.402  24.740  0.00  0.00    +0.000 A 
ATOM     15  O   UNL     1       8.919   2.024  24.746  0.00  0.00    +0.000 OA
ENDBRANCH  10  11
ENDBRANCH   9  10
ENDBRANCH   1   9
TORSDOF 4
ENDMDL
MODEL 7
REMARK VINA RESULT:      -5.1      3.727      5.084
REMARK  Name = 
REMARK  4 active torsions:
REMARK  status: ('A' for Active; 'I' for Inactive)
REMARK    1  A    between atoms: C_6  and  C_7
REMARK    2  A    between atoms: C_7  and  N_8
REMARK    3  A    between atoms: N_8  and  C_9
REMARK    4  A    between atoms: C_9  and  C_10
REMARK                            x       y       z     vdW  Elec       q    Type
REMARK                         _______ _______ _______ _____ _____    ______ ____
ROOT
ATOM      1  C   UNL     1       9.420   0.710  22.248  0.00  0.00    +0.000 C 
ENDROOT
BRANCH   1   7
ATOM      2  F   UNL     1       7.398   5.022  21.834  0.00  0.00    +0.000 F 
ATOM      3  C   UNL     1       7.577   4.104  22.795  0.00  0.00    +0.000 A 
ATOM      4  C   UNL     1       8.667   4.947  23.712  0.00  0.00    +0.000 A 
ATOM      5  C   UNL     1       9.925   4.149  23.811  0.00  0.00    +0.000 A 
ATOM      6  C   UNL     1      10.437   2.837  23.291  0.00  0.00    +0.000 A 
ATOM      7  C   UNL     1       9.416   2.133  22.359  0.00  0.00    +0.000 A 
ATOM      8  C   UNL     1       8.187   2.927  22.222  0.00  0.00    +0.000 A 
ENDBRANCH   1   7
BRANCH   1   9
ATOM      9  N   UNL     1       8.256   0.084  21.727  0.00  0.00    +0.000 NA
BRANCH   9  10
ATOM     10  C   UNL     1       8.458  -0.141  20.315  0.00  0.00    +0.000 C 
BRANCH  10  11
ATOM     11  C   UNL     1       7.242   0.225  19.548  0.00  0.00    +0.000 A 
ATOM     12  C   UNL     1       6.127   0.963  20.196  0.00  0.00    +0.000 A 
ATOM     13  C   UNL     1       5.266   1.375  18.996  0.00  0.00    +0.000 A 
ATOM     14  C   UNL     1       6.066   0.879  17.846  0.00  0.00    +0.000 A 
ATOM     15  O   UNL     1       7.239   0.220  18.174  0.00  0.00    +0.000 OA
ENDBRANCH  10  11
ENDBRANCH   9  10
ENDBRANCH   1   9
TORSDOF 4
ENDMDL
MODEL 8
REMARK VINA RESULT:      -5.1      3.098      4.718
REMARK  Name = 
REMARK  4 active torsions:
REMARK  status: ('A' for Active; 'I' for Inactive)
REMARK    1  A    between atoms: C_6  and  C_7
REMARK    2  A    between atoms: C_7  and  N_8
REMARK    3  A    between atoms: N_8  and  C_9
REMARK    4  A    between atoms: C_9  and  C_10
REMARK                            x       y       z     vdW  Elec       q    Type
REMARK                         _______ _______ _______ _____ _____    ______ ____
ROOT
ATOM      1  C   UNL     1       7.574  -1.934  22.106  0.00  0.00    +0.000 C 
ENDROOT
BRANCH   1   7
ATOM      2  F   UNL     1       6.495  -6.576  21.737  0.00  0.00    +0.000 F 
ATOM      3  C   UNL     1       6.964  -5.743  22.677  0.00  0.00    +0.000 A 
ATOM      4  C   UNL     1       5.630  -5.738  23.658  0.00  0.00    +0.000 A 
ATOM      5  C   UNL     1       5.135  -4.334  23.781  0.00  0.00    +0.000 A 
ATOM      6  C   UNL     1       5.515  -2.985  23.245  0.00  0.00    +0.000 A 
ATOM      7  C   UNL     1       6.708  -3.058  22.256  0.00  0.00    +0.000 A 
ATOM      8  C   UNL     1       7.180  -4.440  22.095  0.00  0.00    +0.000 A 
ENDBRANCH   1   7
BRANCH   1   9
ATOM      9  N   UNL     1       8.921  -2.074  22.538  0.00  0.00    +0.000 NA
BRANCH   9  10
ATOM     10  C   UNL     1       8.991  -1.692  23.929  0.00  0.00    +0.000 C 
BRANCH  10  11
ATOM     11  C   UNL     1       9.132  -2.890  24.793  0.00  0.00    +0.000 A 
ATOM     12  C   UNL     1       8.156  -3.164  25.878  0.00  0.00    +0.000 A 
ATOM     13  C   UNL     1       8.507  -4.601  26.281  0.00  0.00    +0.000 A 
ATOM     14  C   UNL     1       9.573  -4.951  25.306  0.00  0.00    +0.000 A 
ATOM     15  O   UNL     1       9.926  -3.948  24.419  0.00  0.00    +0.000 OA
ENDBRANCH  10  11
ENDBRANCH   9  10
ENDBRANCH   1   9
TORSDOF 4
ENDMDL
MODEL 9
REMARK VINA RESULT:      -5.1      2.256      2.938
REMARK  Name = 
REMARK  4 active torsions:
REMARK  status: ('A' for Active; 'I' for Inactive)
REMARK    1  A    between atoms: C_6  and  C_7
REMARK    2  A    between atoms: C_7  and  N_8
REMARK    3  A    between atoms: N_8  and  C_9
REMARK    4  A    between atoms: C_9  and  C_10
REMARK                            x       y       z     vdW  Elec       q    Type
REMARK                         _______ _______ _______ _____ _____    ______ ____
ROOT
ATOM      1  C   UNL     1       9.789  -2.205  23.158  0.00  0.00    +0.000 C 
ENDROOT
BRANCH   1   7
ATOM      2  F   UNL     1      10.602   2.238  21.594  0.00  0.00    +0.000 F 
ATOM      3  C   UNL     1       9.587   1.554  22.141  0.00  0.00    +0.000 A 
ATOM      4  C   UNL     1       9.573   2.312  23.613  0.00  0.00    +0.000 A 
ATOM      5  C   UNL     1       9.798   1.289  24.677  0.00  0.00    +0.000 A 
ATOM      6  C   UNL     1      10.045  -0.190  24.744  0.00  0.00    +0.000 A 
ATOM      7  C   UNL     1      10.146  -0.835  23.338  0.00  0.00    +0.000 A 
ATOM      8  C   UNL     1       9.965   0.168  22.279  0.00  0.00    +0.000 A 
ENDBRANCH   1   7
BRANCH   1   9
ATOM      9  N   UNL     1       8.914  -2.792  24.111  0.00  0.00    +0.000 NA
BRANCH   9  10
ATOM     10  C   UNL     1       7.562  -2.664  23.622  0.00  0.00    +0.000 C 
BRANCH  10  11
ATOM     11  C   UNL     1       7.122  -3.920  22.966  0.00  0.00    +0.000 A 
ATOM     12  C   UNL     1       6.213  -3.887  21.792  0.00  0.00    +0.000 A 
ATOM     13  C   UNL     1       6.282  -5.332  21.283  0.00  0.00    +0.000 A 
ATOM     14  C   UNL     1       7.283  -5.942  22.196  0.00  0.00    +0.000 A 
ATOM     15  O   UNL     1       7.791  -5.103  23.174  0.00  0.00    +0.000 OA
ENDBRANCH  10  11
ENDBRANCH   9  10
ENDBRANCH   1   9
TORSDOF 4
ENDMDL
