MODEL 1
REMARK VINA RESULT:      -6.2      0.000      0.000
REMARK  Name = 
REMARK  2 active torsions:
REMARK  status: ('A' for Active; 'I' for Inactive)
REMARK    1  A    between atoms: C_5  and  C_8
REMARK    2  A    between atoms: C_16  and  C_18
REMARK                            x       y       z     vdW  Elec       q    Type
REMARK                         _______ _______ _______ _____ _____    ______ ____
ROOT
ATOM      1  C   UNL     1       8.182  -3.413  22.952  0.00  0.00    +0.000 C 
ATOM      2  O   UNL     1       7.457  -3.732  22.000  0.00  0.00    +0.000 OA
ATOM      3  N   UNL     1       7.796  -3.906  24.180  0.00  0.00    +0.000 N 
ATOM      4  C   UNL     1       8.817  -4.160  25.161  0.00  0.00    +0.000 C 
ATOM      5  C   UNL     1       8.490  -3.454  26.475  0.00  0.00    +0.000 C 
ATOM      6  N   UNL     1       7.094  -3.844  26.824  0.00  0.00    +0.000 N 
ATOM      7  C   UNL     1       6.084  -3.373  25.860  0.00  0.00    +0.000 C 
ATOM      8  C   UNL     1       6.395  -3.945  24.496  0.00  0.00    +0.000 C 
ATOM      9  C   UNL     1       6.953  -5.121  27.277  0.00  0.00    +0.000 C 
ATOM     10  O   UNL     1       7.383  -6.043  26.616  0.00  0.00    +0.000 OA
ENDROOT
BRANCH   1  15
ATOM     11  C   UNL     1       7.844   0.153  19.603  0.00  0.00    +0.000 C 
ATOM     12  C   UNL     1       8.252   0.317  21.054  0.00  0.00    +0.000 A 
ATOM     13  C   UNL     1       6.958  -0.141  21.964  0.00  0.00    +0.000 A 
ATOM     14  C   UNL     1       7.452  -1.083  23.020  0.00  0.00    +0.000 A 
ATOM     15  C   UNL     1       8.563  -2.049  23.159  0.00  0.00    +0.000 A 
ATOM     16  C   UNL     1       9.797  -1.603  22.345  0.00  0.00    +0.000 A 
ATOM     17  C   UNL     1       9.478  -0.363  21.484  0.00  0.00    +0.000 A 
ENDBRANCH   1  15
BRANCH   9  18
ATOM     18  C   UNL     1       6.057  -5.328  28.463  0.00  0.00    +0.000 C 
ATOM     19 CL   UNL     1       5.037  -6.769  28.239  0.00  0.00    +0.000 Cl
ENDBRANCH   9  18
TORSDOF 2
ENDMDL
MODEL 2
REMARK VINA RESULT:      -6.1      2.541      3.676
REMARK  Name = 
REMARK  2 active torsions:
REMARK  status: ('A' for Active; 'I' for Inactive)
REMARK    1  A    between atoms: C_5  and  C_8
REMARK    2  A    between atoms: C_16  and  C_18
REMARK                            x       y       z     vdW  Elec       q    Type
REMARK                         _______ _______ _______ _____ _____    ______ ____
ROOT
ATOM      1  C   UNL     1       6.916  -0.395  22.987  0.00  0.00    +0.000 C 
ATOM      2  O   UNL     1       6.438   0.386  23.822  0.00  0.00    +0.000 OA
ATOM      3  N   UNL     1       6.452  -1.691  23.058  0.00  0.00    +0.000 N 
ATOM      4  C   UNL     1       6.408  -2.464  21.844  0.00  0.00    +0.000 C 
ATOM      5  C   UNL     1       7.142  -3.790  22.022  0.00  0.00    +0.000 C 
ATOM      6  N   UNL     1       6.581  -4.418  23.254  0.00  0.00    +0.000 N 
ATOM      7  C   UNL     1       6.844  -3.653  24.485  0.00  0.00    +0.000 C 
ATOM      8  C   UNL     1       6.236  -2.276  24.353  0.00  0.00    +0.000 C 
ATOM      9  C   UNL     1       5.329  -4.934  23.113  0.00  0.00    +0.000 C 
ATOM     10  O   UNL     1       4.437  -4.234  22.681  0.00  0.00    +0.000 OA
ENDROOT
BRANCH   1  15
ATOM     11  C   UNL     1      10.075   3.302  23.612  0.00  0.00    +0.000 C 
ATOM     12  C   UNL     1      10.428   1.864  23.289  0.00  0.00    +0.000 A 
ATOM     13  C   UNL     1       9.900   0.952  24.556  0.00  0.00    +0.000 A 
ATOM     14  C   UNL     1       9.132  -0.207  23.997  0.00  0.00    +0.000 A 
ATOM     15  C   UNL     1       8.331  -0.476  22.785  0.00  0.00    +0.000 A 
ATOM     16  C   UNL     1       8.848   0.340  21.580  0.00  0.00    +0.000 A 
ATOM     17  C   UNL     1       9.950   1.329  22.010  0.00  0.00    +0.000 A 
ENDBRANCH   1  15
BRANCH   9  18
ATOM     18  C   UNL     1       5.072  -6.278  23.730  0.00  0.00    +0.000 C 
ATOM     19 CL   UNL     1       4.336  -6.104  25.340  0.00  0.00    +0.000 Cl
ENDBRANCH   9  18
TORSDOF 2
ENDMDL
MODEL 3
REMARK VINA RESULT:      -6.0      3.850      6.307
REMARK  Name = 
REMARK  2 active torsions:
REMARK  status: ('A' for Active; 'I' for Inactive)
REMARK    1  A    between atoms: C_5  and  C_8
REMARK    2  A    between atoms: C_16  and  C_18
REMARK                            x       y       z     vdW  Elec       q    Type
REMARK                         _______ _______ _______ _____ _____    ______ ____
ROOT
ATOM      1  C   UNL     1       8.042  -3.432  23.860  0.00  0.00    +0.000 C 
ATOM      2  O   UNL     1       7.702  -3.632  25.035  0.00  0.00    +0.000 OA
ATOM      3  N   UNL     1       8.481  -2.156  23.582  0.00  0.00    +0.000 N 
ATOM      4  C   UNL     1       9.453  -1.985  22.534  0.00  0.00    +0.000 C 
ATOM      5  C   UNL     1       8.974  -0.952  21.518  0.00  0.00    +0.000 C 
ATOM      6  N   UNL     1       8.591   0.259  22.298  0.00  0.00    +0.000 N 
ATOM      7  C   UNL     1       7.453   0.045  23.210  0.00  0.00    +0.000 C 
ATOM      8  C   UNL     1       7.805  -1.046  24.195  0.00  0.00    +0.000 C 
ATOM      9  C   UNL     1       9.638   0.977  22.791  0.00  0.00    +0.000 C 
ATOM     10  O   UNL     1      10.483   0.423  23.462  0.00  0.00    +0.000 OA
ENDROOT
BRANCH   1  15
ATOM     11  C   UNL     1       4.365  -6.662  24.165  0.00  0.00    +0.000 C 
ATOM     12  C   UNL     1       4.726  -5.822  22.956  0.00  0.00    +0.000 A 
ATOM     13  C   UNL     1       4.534  -4.247  23.400  0.00  0.00    +0.000 A 
ATOM     14  C   UNL     1       5.764  -3.500  22.980  0.00  0.00    +0.000 A 
ATOM     15  C   UNL     1       7.193  -3.819  22.775  0.00  0.00    +0.000 A 
ATOM     16  C   UNL     1       7.378  -5.281  22.314  0.00  0.00    +0.000 A 
ATOM     17  C   UNL     1       6.042  -6.051  22.351  0.00  0.00    +0.000 A 
ENDBRANCH   1  15
BRANCH   9  18
ATOM     18  C   UNL     1       9.556   2.471  22.670  0.00  0.00    +0.000 C 
ATOM     19 CL   UNL     1      10.998   3.241  23.373  0.00  0.00    +0.000 Cl
ENDBRANCH   9  18
TORSDOF 2
ENDMDL
MODEL 4
REMARK VINA RESULT:      -5.9      2.443      3.046
REMARK  Name = 
REMARK  2 active torsions:
REMARK  status: ('A' for Active; 'I' for Inactive)
REMARK    1  A    between atoms: C_5  and  C_8
REMARK    2  A    between atoms: C_16  and  C_18
REMARK                            x       y       z     vdW  Elec       q    Type
REMARK                         _______ _______ _______ _____ _____    ______ ____
ROOT
ATOM      1  C   UNL     1       8.328  -1.783  22.585  0.00  0.00    +0.000 C 
ATOM      2  O   UNL     1       8.054  -1.148  21.556  0.00  0.00    +0.000 OA
ATOM      3  N   UNL     1       7.538  -2.886  22.825  0.00  0.00    +0.000 N 
ATOM      4  C   UNL     1       8.118  -3.994  23.537  0.00  0.00    +0.000 C 
ATOM      5  C   UNL     1       7.255  -4.375  24.737  0.00  0.00    +0.000 C 
ATOM      6  N   UNL     1       5.867  -4.546  24.219  0.00  0.00    +0.000 N 
ATOM      7  C   UNL     1       5.274  -3.308  23.683  0.00  0.00    +0.000 C 
ATOM      8  C   UNL     1       6.131  -2.799  22.547  0.00  0.00    +0.000 C 
ATOM      9  C   UNL     1       5.663  -5.681  23.495  0.00  0.00    +0.000 C 
ATOM     10  O   UNL     1       6.385  -5.931  22.553  0.00  0.00    +0.000 OA
ENDROOT
BRANCH   1  15
ATOM     11  C   UNL     1      10.409   2.616  23.188  0.00  0.00    +0.000 C 
ATOM     12  C   UNL     1       9.730   1.788  24.261  0.00  0.00    +0.000 A 
ATOM     13  C   UNL     1       8.154   1.630  23.809  0.00  0.00    +0.000 A 
ATOM     14  C   UNL     1       7.786   0.182  23.930  0.00  0.00    +0.000 A 
ATOM     15  C   UNL     1       8.492  -1.113  23.839  0.00  0.00    +0.000 A 
ATOM     16  C   UNL     1       9.959  -0.985  24.304  0.00  0.00    +0.000 A 
ATOM     17  C   UNL     1      10.328   0.487  24.580  0.00  0.00    +0.000 A 
ENDBRANCH   1  15
BRANCH   9  18
ATOM     18  C   UNL     1       4.397  -6.442  23.764  0.00  0.00    +0.000 C 
ATOM     19 CL   UNL     1       4.320  -6.957  25.465  0.00  0.00    +0.000 Cl
ENDBRANCH   9  18
TORSDOF 2
ENDMDL
MODEL 5
REMARK VINA RESULT:      -5.9      3.182      6.774
REMARK  Name = 
REMARK  2 active torsions:
REMARK  status: ('A' for Active; 'I' for Inactive)
REMARK    1  A    between atoms: C_5  and  C_8
REMARK    2  A    between atoms: C_16  and  C_18
REMARK                            x       y       z     vdW  Elec       q    Type
REMARK                         _______ _______ _______ _____ _____    ______ ____
ROOT
ATOM      1  C   UNL     1       7.229  -5.434  26.374  0.00  0.00    +0.000 C 
ATOM      2  O   UNL     1       7.656  -5.639  27.519  0.00  0.00    +0.000 OA
ATOM      3  N   UNL     1       7.917  -4.486  25.649  0.00  0.00    +0.000 N 
ATOM      4  C   UNL     1       7.956  -4.623  24.217  0.00  0.00    +0.000 C 
ATOM      5  C   UNL     1       7.491  -3.337  23.539  0.00  0.00    +0.000 C 
ATOM      6  N   UNL     1       8.290  -2.232  24.142  0.00  0.00    +0.000 N 
ATOM      7  C   UNL     1       8.041  -2.032  25.580  0.00  0.00    +0.000 C 
ATOM      8  C   UNL     1       8.380  -3.304  26.323  0.00  0.00    +0.000 C 
ATOM      9  C   UNL     1       9.589  -2.178  23.736  0.00  0.00    +0.000 C 
ATOM     10  O   UNL     1      10.289  -3.164  23.833  0.00  0.00    +0.000 OA
ENDROOT
BRANCH   1  15
ATOM     11  C   UNL     1       3.579  -7.007  29.246  0.00  0.00    +0.000 C 
ATOM     12  C   UNL     1       3.446  -6.100  28.039  0.00  0.00    +0.000 A 
ATOM     13  C   UNL     1       4.289  -4.728  28.384  0.00  0.00    +0.000 A 
ATOM     14  C   UNL     1       5.168  -4.423  27.209  0.00  0.00    +0.000 A 
ATOM     15  C   UNL     1       5.836  -5.197  26.142  0.00  0.00    +0.000 A 
ATOM     16  C   UNL     1       5.029  -6.463  25.780  0.00  0.00    +0.000 A 
ATOM     17  C   UNL     1       3.836  -6.656  26.739  0.00  0.00    +0.000 A 
ENDBRANCH   1  15
BRANCH   9  18
ATOM     18  C   UNL     1      10.145  -0.822  23.411  0.00  0.00    +0.000 C 
ATOM     19 CL   UNL     1       9.678  -0.326  21.768  0.00  0.00    +0.000 Cl
ENDBRANCH   9  18
TORSDOF 2
ENDMDL
MODEL 6
REMARK VINA RESULT:      -5.9      3.038      3.951
REMARK  Name = 
REMARK  2 active torsions:
REMARK  status: ('A' for Active; 'I' for Inactive)
REMARK    1  A    between atoms: C_5  and  C_8
REMARK    2  A    between atoms: C_16  and  C_18
REMARK                            x       y       z     vdW  Elec       q    Type
REMARK                         _______ _______ _______ _____ _____    ______ ____
ROOT
ATOM      1  C   UNL     1       9.181  -0.839  24.415  0.00  0.00    +0.000 C 
ATOM      2  O   UNL     1      10.362  -1.014  24.082  0.00  0.00    +0.000 OA
ATOM      3  N   UNL     1       8.343  -1.912  24.202  0.00  0.00    +0.000 N 
ATOM      4  C   UNL     1       7.215  -2.078  25.080  0.00  0.00    +0.000 C 
ATOM      5  C   UNL     1       5.921  -2.205  24.279  0.00  0.00    +0.000 C 
ATOM      6  N   UNL     1       6.160  -3.270  23.263  0.00  0.00    +0.000 N 
ATOM      7  C   UNL     1       7.203  -2.934  22.279  0.00  0.00    +0.000 C 
ATOM      8  C   UNL     1       8.507  -2.687  23.002  0.00  0.00    +0.000 C 
ATOM      9  C   UNL     1       6.178  -4.539  23.759  0.00  0.00    +0.000 C 
ATOM     10  O   UNL     1       6.916  -4.811  24.683  0.00  0.00    +0.000 OA
ENDROOT
BRANCH   1  15
ATOM     11  C   UNL     1      11.212   3.516  23.442  0.00  0.00    +0.000 C 
ATOM     12  C   UNL     1       9.757   3.139  23.246  0.00  0.00    +0.000 A 
ATOM     13  C   UNL     1       9.730   1.928  22.130  0.00  0.00    +0.000 A 
ATOM     14  C   UNL     1       8.857   0.833  22.664  0.00  0.00    +0.000 A 
ATOM     15  C   UNL     1       8.467   0.329  23.997  0.00  0.00    +0.000 A 
ATOM     16  C   UNL     1       8.445   1.467  25.041  0.00  0.00    +0.000 A 
ATOM     17  C   UNL     1       8.992   2.780  24.444  0.00  0.00    +0.000 A 
ENDBRANCH   1  15
BRANCH   9  18
ATOM     18  C   UNL     1       5.451  -5.589  22.971  0.00  0.00    +0.000 C 
ATOM     19 CL   UNL     1       6.569  -6.456  21.892  0.00  0.00    +0.000 Cl
ENDBRANCH   9  18
TORSDOF 2
ENDMDL
MODEL 7
REMARK VINA RESULT:      -5.8      3.560      4.516
REMARK  Name = 
REMARK  2 active torsions:
REMARK  status: ('A' for Active; 'I' for Inactive)
REMARK    1  A    between atoms: C_5  and  C_8
REMARK    2  A    between atoms: C_16  and  C_18
REMARK                            x       y       z     vdW  Elec       q    Type
REMARK                         _______ _______ _______ _____ _____    ______ ____
ROOT
ATOM      1  C   UNL     1       8.126   1.055  22.833  0.00  0.00    +0.000 C 
ATOM      2  O   UNL     1       7.009   1.587  22.757  0.00  0.00    +0.000 OA
ATOM      3  N   UNL     1       8.118  -0.308  23.040  0.00  0.00    +0.000 N 
ATOM      4  C   UNL     1       9.214  -1.080  22.518  0.00  0.00    +0.000 C 
ATOM      5  C   UNL     1       9.840  -1.938  23.614  0.00  0.00    +0.000 C 
ATOM      6  N   UNL     1       8.719  -2.686  24.253  0.00  0.00    +0.000 N 
ATOM      7  C   UNL     1       7.740  -1.824  24.937  0.00  0.00    +0.000 C 
ATOM      8  C   UNL     1       7.141  -0.863  23.936  0.00  0.00    +0.000 C 
ATOM      9  C   UNL     1       8.213  -3.706  23.506  0.00  0.00    +0.000 C 
ATOM     10  O   UNL     1       7.845  -3.493  22.370  0.00  0.00    +0.000 OA
ENDROOT
BRANCH   1  15
ATOM     11  C   UNL     1       9.011   5.832  23.500  0.00  0.00    +0.000 C 
ATOM     12  C   UNL     1       9.670   4.683  24.238  0.00  0.00    +0.000 A 
ATOM     13  C   UNL     1       8.474   3.902  25.059  0.00  0.00    +0.000 A 
ATOM     14  C   UNL     1       8.617   2.435  24.788  0.00  0.00    +0.000 A 
ATOM     15  C   UNL     1       9.138   1.594  23.689  0.00  0.00    +0.000 A 
ATOM     16  C   UNL     1      10.291   2.301  22.943  0.00  0.00    +0.000 A 
ATOM     17  C   UNL     1      10.472   3.749  23.443  0.00  0.00    +0.000 A 
ENDBRANCH   1  15
BRANCH   9  18
ATOM     18  C   UNL     1       7.922  -4.994  24.220  0.00  0.00    +0.000 C 
ATOM     19 CL   UNL     1       9.205  -5.370  25.393  0.00  0.00    +0.000 Cl
ENDBRANCH   9  18
TORSDOF 2
ENDMDL
MODEL 8
REMARK VINA RESULT:      -5.8      1.521      2.119
REMARK  Name = 
REMARK  2 active torsions:
REMARK  status: ('A' for Active; 'I' for Inactive)
REMARK    1  A    between atoms: C_5  and  C_8
REMARK    2  A    between atoms: C_16  and  C_18
REMARK                            x       y       z     vdW  Elec       q    Type
REMARK                         _______ _______ _______ _____ _____    ______ ____
ROOT
ATOM      1  C   UNL     1       9.010  -2.485  24.369  0.00  0.00    +0.000 C 
ATOM      2  O   UNL     1      10.032  -2.983  23.875  0.00  0.00    +0.000 OA
ATOM      3  N   UNL     1       8.240  -3.343  25.124  0.00  0.00    +0.000 N 
ATOM      4  C   UNL     1       7.472  -2.791  26.208  0.00  0.00    +0.000 C 
ATOM      5  C   UNL     1       6.006  -3.198  26.093  0.00  0.00    +0.000 C 
ATOM      6  N   UNL     1       5.993  -4.681  25.931  0.00  0.00    +0.000 N 
ATOM      7  C   UNL     1       6.632  -5.150  24.689  0.00  0.00    +0.000 C 
ATOM      8  C   UNL     1       8.074  -4.697  24.672  0.00  0.00    +0.000 C 
ATOM      9  C   UNL     1       6.276  -5.382  27.063  0.00  0.00    +0.000 C 
ATOM     10  O   UNL     1       7.292  -5.140  27.682  0.00  0.00    +0.000 OA
ENDROOT
BRANCH   1  15
ATOM     11  C   UNL     1      10.137   1.665  22.011  0.00  0.00    +0.000 C 
ATOM     12  C   UNL     1       8.825   0.911  21.927  0.00  0.00    +0.000 A 
ATOM     13  C   UNL     1       9.169  -0.568  21.290  0.00  0.00    +0.000 A 
ATOM     14  C   UNL     1       8.505  -1.602  22.148  0.00  0.00    +0.000 A 
ATOM     15  C   UNL     1       8.105  -1.721  23.565  0.00  0.00    +0.000 A 
ATOM     16  C   UNL     1       7.735  -0.343  24.159  0.00  0.00    +0.000 A 
ATOM     17  C   UNL     1       8.041   0.793  23.162  0.00  0.00    +0.000 A 
ENDBRANCH   1  15
BRANCH   9  18
ATOM     18  C   UNL     1       5.425  -6.584  27.351  0.00  0.00    +0.000 C 
ATOM     19 CL   UNL     1       3.713  -6.242  27.009  0.00  0.00    +0.000 Cl
ENDBRANCH   9  18
TORSDOF 2
ENDMDL
MODEL 9
REMARK VINA RESULT:      -5.8      2.132      2.945
REMARK  Name = 
REMARK  2 active torsions:
REMARK  status: ('A' for Active; 'I' for Inactive)
REMARK    1  A    between atoms: C_5  and  C_8
REMARK    2  A    between atoms: C_16  and  C_18
REMARK                            x       y       z     vdW  Elec       q    Type
REMARK                         _______ _______ _______ _____ _____    ______ ____
ROOT
ATOM      1  C   UNL     1       6.639  -1.443  23.777  0.00  0.00    +0.000 C 
ATOM      2  O   UNL     1       6.974  -0.699  24.711  0.00  0.00    +0.000 OA
ATOM      3  N   UNL     1       6.079  -2.645  24.152  0.00  0.00    +0.000 N 
ATOM      4  C   UNL     1       5.116  -3.249  23.270  0.00  0.00    +0.000 C 
ATOM      5  C   UNL     1       5.508  -4.689  22.949  0.00  0.00    +0.000 C 
ATOM      6  N   UNL     1       5.751  -5.360  24.258  0.00  0.00    +0.000 N 
ATOM      7  C   UNL     1       6.886  -4.800  25.013  0.00  0.00    +0.000 C 
ATOM      8  C   UNL     1       6.627  -3.336  25.286  0.00  0.00    +0.000 C 
ATOM      9  C   UNL     1       4.627  -5.644  24.973  0.00  0.00    +0.000 C 
ATOM     10  O   UNL     1       3.828  -4.762  25.212  0.00  0.00    +0.000 OA
ENDROOT
BRANCH   1  15
ATOM     11  C   UNL     1       9.983   1.672  22.000  0.00  0.00    +0.000 C 
ATOM     12  C   UNL     1       9.805   0.221  21.600  0.00  0.00    +0.000 A 
ATOM     13  C   UNL     1      10.091  -0.679  22.950  0.00  0.00    +0.000 A 
ATOM     14  C   UNL     1       8.972  -1.667  23.087  0.00  0.00    +0.000 A 
ATOM     15  C   UNL     1       7.545  -1.728  22.706  0.00  0.00    +0.000 A 
ATOM     16  C   UNL     1       7.276  -0.924  21.415  0.00  0.00    +0.000 A 
ATOM     17  C   UNL     1       8.532  -0.148  20.971  0.00  0.00    +0.000 A 
ENDBRANCH   1  15
BRANCH   9  18
ATOM     18  C   UNL     1       4.559  -6.992  25.628  0.00  0.00    +0.000 C 
ATOM     19 CL   UNL     1       4.918  -6.868  27.366  0.00  0.00    +0.000 Cl
ENDBRANCH   9  18
TORSDOF 2
ENDMDL
