MODEL 1
REMARK VINA RESULT:      -5.7      0.000      0.000
REMARK  Name = 
REMARK  2 active torsions:
REMARK  status: ('A' for Active; 'I' for Inactive)
REMARK    1  A    between atoms: C_2  and  C_3
REMARK    2  A    between atoms: C_11  and  C_13
REMARK                            x       y       z     vdW  Elec       q    Type
REMARK                         _______ _______ _______ _____ _____    ______ ____
ROOT
ATOM      1  C   UNL     1       7.362  -2.837  23.912  0.00  0.00    +0.000 C 
ATOM      2  O   UNL     1       6.862  -3.145  24.979  0.00  0.00    +0.000 OA
ATOM      3  N   UNL     1       8.408  -1.971  23.880  0.00  0.00    +0.000 N 
ATOM      4  C   UNL     1       8.311  -0.734  24.633  0.00  0.00    +0.000 C 
ATOM      5  C   UNL     1       9.512   0.146  24.336  0.00  0.00    +0.000 C 
ATOM      6  N   UNL     1       9.980  -0.096  22.983  0.00  0.00    +0.000 N 
ATOM      7  C   UNL     1      10.407  -1.432  22.602  0.00  0.00    +0.000 C 
ATOM      8  C   UNL     1       9.708  -2.464  23.468  0.00  0.00    +0.000 C 
ATOM      9  C   UNL     1       9.668   0.790  22.009  0.00  0.00    +0.000 C 
ATOM     10  O   UNL     1      10.262   1.821  21.865  0.00  0.00    +0.000 OA
ENDROOT
BRANCH   9  11
ATOM     11  C   UNL     1       8.333   0.572  21.613  0.00  0.00    +0.000 A 
ATOM     12  O   UNL     1       7.557   1.669  21.937  0.00  0.00    +0.000 OA
ATOM     13  C   UNL     1       6.569   1.672  20.947  0.00  0.00    +0.000 A 
ATOM     14  C   UNL     1       6.746   0.636  19.882  0.00  0.00    +0.000 A 
ATOM     15  C   UNL     1       8.078   0.001  20.279  0.00  0.00    +0.000 A 
ENDBRANCH   9  11
BRANCH   1  17
ATOM     16 CL   UNL     1       6.018  -3.142  21.592  0.00  0.00    +0.000 Cl
ATOM     17  C   UNL     1       7.257  -3.760  22.712  0.00  0.00    +0.000 C 
ENDBRANCH   1  17
TORSDOF 2
ENDMDL
MODEL 2
REMARK VINA RESULT:      -5.2      2.317      2.928
REMARK  Name = 
REMARK  2 active torsions:
REMARK  status: ('A' for Active; 'I' for Inactive)
REMARK    1  A    between atoms: C_2  and  C_3
REMARK    2  A    between atoms: C_11  and  C_13
REMARK                            x       y       z     vdW  Elec       q    Type
REMARK                         _______ _______ _______ _____ _____    ______ ____
ROOT
ATOM      1  C   UNL     1       6.766  -1.472  22.044  0.00  0.00    +0.000 C 
ATOM      2  O   UNL     1       5.848  -2.221  22.322  0.00  0.00    +0.000 OA
ATOM      3  N   UNL     1       7.946  -1.570  22.712  0.00  0.00    +0.000 N 
ATOM      4  C   UNL     1       7.922  -1.632  24.161  0.00  0.00    +0.000 C 
ATOM      5  C   UNL     1       9.340  -1.584  24.703  0.00  0.00    +0.000 C 
ATOM      6  N   UNL     1      10.184  -0.812  23.809  0.00  0.00    +0.000 N 
ATOM      7  C   UNL     1      10.339  -1.236  22.427  0.00  0.00    +0.000 C 
ATOM      8  C   UNL     1       9.119  -2.025  21.990  0.00  0.00    +0.000 C 
ATOM      9  C   UNL     1      10.505   0.461  24.139  0.00  0.00    +0.000 C 
ATOM     10  O   UNL     1      11.367   0.720  24.930  0.00  0.00    +0.000 OA
ENDROOT
BRANCH   9  11
ATOM     11  C   UNL     1       9.402   1.291  23.855  0.00  0.00    +0.000 A 
ATOM     12  O   UNL     1       8.853   1.770  25.029  0.00  0.00    +0.000 OA
ATOM     13  C   UNL     1       8.335   3.016  24.661  0.00  0.00    +0.000 A 
ATOM     14  C   UNL     1       8.637   3.429  23.255  0.00  0.00    +0.000 A 
ATOM     15  C   UNL     1       9.530   2.285  22.775  0.00  0.00    +0.000 A 
ENDBRANCH   9  11
BRANCH   1  17
ATOM     16 CL   UNL     1       6.871   0.938  20.832  0.00  0.00    +0.000 Cl
ATOM     17  C   UNL     1       6.861  -0.836  20.669  0.00  0.00    +0.000 C 
ENDBRANCH   1  17
TORSDOF 2
ENDMDL
MODEL 3
REMARK VINA RESULT:      -5.2      1.991      2.386
REMARK  Name = 
REMARK  2 active torsions:
REMARK  status: ('A' for Active; 'I' for Inactive)
REMARK    1  A    between atoms: C_2  and  C_3
REMARK    2  A    between atoms: C_11  and  C_13
REMARK                            x       y       z     vdW  Elec       q    Type
REMARK                         _______ _______ _______ _____ _____    ______ ____
ROOT
ATOM      1  C   UNL     1       8.623  -1.704  25.058  0.00  0.00    +0.000 C 
ATOM      2  O   UNL     1       8.038  -2.227  25.989  0.00  0.00    +0.000 OA
ATOM      3  N   UNL     1       8.827  -0.360  25.056  0.00  0.00    +0.000 N 
ATOM      4  C   UNL     1       7.707   0.515  25.350  0.00  0.00    +0.000 C 
ATOM      5  C   UNL     1       8.117   1.962  25.145  0.00  0.00    +0.000 C 
ATOM      6  N   UNL     1       9.128   2.048  24.107  0.00  0.00    +0.000 N 
ATOM      7  C   UNL     1      10.385   1.336  24.273  0.00  0.00    +0.000 C 
ATOM      8  C   UNL     1      10.184   0.138  25.181  0.00  0.00    +0.000 C 
ATOM      9  C   UNL     1       8.768   2.453  22.867  0.00  0.00    +0.000 C 
ATOM     10  O   UNL     1       8.608   3.608  22.591  0.00  0.00    +0.000 OA
ENDROOT
BRANCH   9  11
ATOM     11  C   UNL     1       8.144   1.376  22.205  0.00  0.00    +0.000 A 
ATOM     12  O   UNL     1       6.921   1.774  21.700  0.00  0.00    +0.000 OA
ATOM     13  C   UNL     1       6.764   0.976  20.562  0.00  0.00    +0.000 A 
ATOM     14  C   UNL     1       7.941   0.114  20.234  0.00  0.00    +0.000 A 
ATOM     15  C   UNL     1       8.953   0.544  21.296  0.00  0.00    +0.000 A 
ENDBRANCH   9  11
BRANCH   1  17
ATOM     16 CL   UNL     1       9.590  -4.202  24.733  0.00  0.00    +0.000 Cl
ATOM     17  C   UNL     1       9.594  -2.500  24.206  0.00  0.00    +0.000 C 
ENDBRANCH   1  17
TORSDOF 2
ENDMDL
MODEL 4
REMARK VINA RESULT:      -5.2      3.996      5.022
REMARK  Name = 
REMARK  2 active torsions:
REMARK  status: ('A' for Active; 'I' for Inactive)
REMARK    1  A    between atoms: C_2  and  C_3
REMARK    2  A    between atoms: C_11  and  C_13
REMARK                            x       y       z     vdW  Elec       q    Type
REMARK                         _______ _______ _______ _____ _____    ______ ____
ROOT
ATOM      1  C   UNL     1       5.046  -5.128  26.860  0.00  0.00    +0.000 C 
ATOM      2  O   UNL     1       4.224  -4.614  27.595  0.00  0.00    +0.000 OA
ATOM      3  N   UNL     1       6.285  -4.582  26.742  0.00  0.00    +0.000 N 
ATOM      4  C   UNL     1       6.397  -3.154  26.509  0.00  0.00    +0.000 C 
ATOM      5  C   UNL     1       7.849  -2.785  26.259  0.00  0.00    +0.000 C 
ATOM      6  N   UNL     1       8.540  -3.897  25.632  0.00  0.00    +0.000 N 
ATOM      7  C   UNL     1       8.605  -5.177  26.316  0.00  0.00    +0.000 C 
ATOM      8  C   UNL     1       7.423  -5.320  27.257  0.00  0.00    +0.000 C 
ATOM      9  C   UNL     1       8.779  -3.858  24.300  0.00  0.00    +0.000 C 
ATOM     10  O   UNL     1       9.684  -3.229  23.829  0.00  0.00    +0.000 OA
ENDROOT
BRANCH   9  11
ATOM     11  C   UNL     1       7.589  -4.182  23.620  0.00  0.00    +0.000 A 
ATOM     12  O   UNL     1       7.121  -3.080  22.930  0.00  0.00    +0.000 OA
ATOM     13  C   UNL     1       6.467  -3.639  21.827  0.00  0.00    +0.000 A 
ATOM     14  C   UNL     1       6.592  -5.125  21.713  0.00  0.00    +0.000 A 
ATOM     15  C   UNL     1       7.525  -5.454  22.878  0.00  0.00    +0.000 A 
ENDBRANCH   9  11
BRANCH   1  17
ATOM     16 CL   UNL     1       4.696  -6.789  24.761  0.00  0.00    +0.000 Cl
ATOM     17  C   UNL     1       4.962  -6.603  26.513  0.00  0.00    +0.000 C 
ENDBRANCH   1  17
TORSDOF 2
ENDMDL
MODEL 5
REMARK VINA RESULT:      -5.1      2.305      3.355
REMARK  Name = 
REMARK  2 active torsions:
REMARK  status: ('A' for Active; 'I' for Inactive)
REMARK    1  A    between atoms: C_2  and  C_3
REMARK    2  A    between atoms: C_11  and  C_13
REMARK                            x       y       z     vdW  Elec       q    Type
REMARK                         _______ _______ _______ _____ _____    ______ ____
ROOT
ATOM      1  C   UNL     1       9.207  -2.997  24.257  0.00  0.00    +0.000 C 
ATOM      2  O   UNL     1      10.195  -3.707  24.245  0.00  0.00    +0.000 OA
ATOM      3  N   UNL     1       8.839  -2.329  23.132  0.00  0.00    +0.000 N 
ATOM      4  C   UNL     1       9.847  -1.578  22.408  0.00  0.00    +0.000 C 
ATOM      5  C   UNL     1       9.196  -0.793  21.283  0.00  0.00    +0.000 C 
ATOM      6  N   UNL     1       7.840  -0.431  21.653  0.00  0.00    +0.000 N 
ATOM      7  C   UNL     1       6.881  -1.476  21.968  0.00  0.00    +0.000 C 
ATOM      8  C   UNL     1       7.608  -2.711  22.467  0.00  0.00    +0.000 C 
ATOM      9  C   UNL     1       7.585   0.833  22.066  0.00  0.00    +0.000 C 
ATOM     10  O   UNL     1       7.454   1.743  21.298  0.00  0.00    +0.000 OA
ENDROOT
BRANCH   9  11
ATOM     11  C   UNL     1       8.012   0.965  23.402  0.00  0.00    +0.000 A 
ATOM     12  O   UNL     1       9.039   1.886  23.483  0.00  0.00    +0.000 OA
ATOM     13  C   UNL     1       8.881   2.438  24.759  0.00  0.00    +0.000 A 
ATOM     14  C   UNL     1       7.670   1.967  25.499  0.00  0.00    +0.000 A 
ATOM     15  C   UNL     1       6.991   1.075  24.460  0.00  0.00    +0.000 A 
ENDBRANCH   9  11
BRANCH   1  17
ATOM     16 CL   UNL     1       8.066  -1.938  26.462  0.00  0.00    +0.000 Cl
ATOM     17  C   UNL     1       8.085  -3.243  25.250  0.00  0.00    +0.000 C 
ENDBRANCH   1  17
TORSDOF 2
ENDMDL
MODEL 6
REMARK VINA RESULT:      -5.1      3.168      4.679
REMARK  Name = 
REMARK  2 active torsions:
REMARK  status: ('A' for Active; 'I' for Inactive)
REMARK    1  A    between atoms: C_2  and  C_3
REMARK    2  A    between atoms: C_11  and  C_13
REMARK                            x       y       z     vdW  Elec       q    Type
REMARK                         _______ _______ _______ _____ _____    ______ ____
ROOT
ATOM      1  C   UNL     1       7.511  -4.914  25.779  0.00  0.00    +0.000 C 
ATOM      2  O   UNL     1       8.225  -5.849  26.090  0.00  0.00    +0.000 OA
ATOM      3  N   UNL     1       6.836  -4.940  24.600  0.00  0.00    +0.000 N 
ATOM      4  C   UNL     1       7.558  -5.295  23.392  0.00  0.00    +0.000 C 
ATOM      5  C   UNL     1       6.658  -5.114  22.182  0.00  0.00    +0.000 C 
ATOM      6  N   UNL     1       5.707  -4.046  22.429  0.00  0.00    +0.000 N 
ATOM      7  C   UNL     1       4.788  -4.151  23.550  0.00  0.00    +0.000 C 
ATOM      8  C   UNL     1       5.388  -5.033  24.629  0.00  0.00    +0.000 C 
ATOM      9  C   UNL     1       5.923  -2.830  21.876  0.00  0.00    +0.000 C 
ATOM     10  O   UNL     1       5.661  -2.590  20.731  0.00  0.00    +0.000 OA
ENDROOT
BRANCH   9  11
ATOM     11  C   UNL     1       6.907  -2.161  22.630  0.00  0.00    +0.000 A 
ATOM     12  O   UNL     1       8.021  -1.919  21.849  0.00  0.00    +0.000 OA
ATOM     13  C   UNL     1       8.545  -0.738  22.386  0.00  0.00    +0.000 A 
ATOM     14  C   UNL     1       7.714  -0.118  23.464  0.00  0.00    +0.000 A 
ATOM     15  C   UNL     1       6.493  -1.038  23.491  0.00  0.00    +0.000 A 
ENDBRANCH   9  11
BRANCH   1  17
ATOM     16 CL   UNL     1       7.519  -2.349  26.619  0.00  0.00    +0.000 Cl
ATOM     17  C   UNL     1       6.911  -4.009  26.840  0.00  0.00    +0.000 C 
ENDBRANCH   1  17
TORSDOF 2
ENDMDL
MODEL 7
REMARK VINA RESULT:      -5.1      2.169      4.682
REMARK  Name = 
REMARK  2 active torsions:
REMARK  status: ('A' for Active; 'I' for Inactive)
REMARK    1  A    between atoms: C_2  and  C_3
REMARK    2  A    between atoms: C_11  and  C_13
REMARK                            x       y       z     vdW  Elec       q    Type
REMARK                         _______ _______ _______ _____ _____    ______ ____
ROOT
ATOM      1  C   UNL     1       7.873   1.094  22.193  0.00  0.00    +0.000 C 
ATOM      2  O   UNL     1       8.138   1.758  21.207  0.00  0.00    +0.000 OA
ATOM      3  N   UNL     1       8.804   0.253  22.713  0.00  0.00    +0.000 N 
ATOM      4  C   UNL     1       9.507  -0.648  21.818  0.00  0.00    +0.000 C 
ATOM      5  C   UNL     1      10.381  -1.594  22.622  0.00  0.00    +0.000 C 
ATOM      6  N   UNL     1       9.781  -1.839  23.920  0.00  0.00    +0.000 N 
ATOM      7  C   UNL     1       9.537  -0.723  24.818  0.00  0.00    +0.000 C 
ATOM      8  C   UNL     1       9.363   0.555  24.018  0.00  0.00    +0.000 C 
ATOM      9  C   UNL     1       9.120  -3.002  24.133  0.00  0.00    +0.000 C 
ATOM     10  O   UNL     1       9.690  -4.028  24.374  0.00  0.00    +0.000 OA
ENDROOT
BRANCH   9  11
ATOM     11  C   UNL     1       7.848  -2.913  23.534  0.00  0.00    +0.000 A 
ATOM     12  O   UNL     1       7.742  -3.830  22.506  0.00  0.00    +0.000 OA
ATOM     13  C   UNL     1       6.380  -4.150  22.495  0.00  0.00    +0.000 A 
ATOM     14  C   UNL     1       5.582  -3.531  23.598  0.00  0.00    +0.000 A 
ATOM     15  C   UNL     1       6.664  -2.815  24.407  0.00  0.00    +0.000 A 
ENDBRANCH   9  11
BRANCH   1  17
ATOM     16 CL   UNL     1       6.195   3.151  22.682  0.00  0.00    +0.000 Cl
ATOM     17  C   UNL     1       6.804   1.550  23.170  0.00  0.00    +0.000 C 
ENDBRANCH   1  17
TORSDOF 2
ENDMDL
MODEL 8
REMARK VINA RESULT:      -5.1      2.652      3.919
REMARK  Name = 
REMARK  2 active torsions:
REMARK  status: ('A' for Active; 'I' for Inactive)
REMARK    1  A    between atoms: C_2  and  C_3
REMARK    2  A    between atoms: C_11  and  C_13
REMARK                            x       y       z     vdW  Elec       q    Type
REMARK                         _______ _______ _______ _____ _____    ______ ____
ROOT
ATOM      1  C   UNL     1       8.545  -4.309  24.675  0.00  0.00    +0.000 C 
ATOM      2  O   UNL     1       8.825  -5.389  24.190  0.00  0.00    +0.000 OA
ATOM      3  N   UNL     1       7.684  -3.479  24.029  0.00  0.00    +0.000 N 
ATOM      4  C   UNL     1       7.889  -3.228  22.615  0.00  0.00    +0.000 C 
ATOM      5  C   UNL     1       6.916  -2.165  22.134  0.00  0.00    +0.000 C 
ATOM      6  N   UNL     1       6.612  -1.247  23.217  0.00  0.00    +0.000 N 
ATOM      7  C   UNL     1       6.015  -1.757  24.441  0.00  0.00    +0.000 C 
ATOM      8  C   UNL     1       6.390  -3.216  24.628  0.00  0.00    +0.000 C 
ATOM      9  C   UNL     1       7.212  -0.034  23.242  0.00  0.00    +0.000 C 
ATOM     10  O   UNL     1       6.836   0.881  22.567  0.00  0.00    +0.000 OA
ENDROOT
BRANCH   9  11
ATOM     11  C   UNL     1       8.530  -0.194  23.714  0.00  0.00    +0.000 A 
ATOM     12  O   UNL     1       9.431   0.019  22.688  0.00  0.00    +0.000 OA
ATOM     13  C   UNL     1      10.556   0.531  23.343  0.00  0.00    +0.000 A 
ATOM     14  C   UNL     1      10.372   0.772  24.808  0.00  0.00    +0.000 A 
ATOM     15  C   UNL     1       8.896   0.422  25.002  0.00  0.00    +0.000 A 
ENDBRANCH   9  11
BRANCH   1  17
ATOM     16 CL   UNL     1       7.825  -5.392  27.040  0.00  0.00    +0.000 Cl
ATOM     17  C   UNL     1       8.656  -4.077  26.171  0.00  0.00    +0.000 C 
ENDBRANCH   1  17
TORSDOF 2
ENDMDL
MODEL 9
REMARK VINA RESULT:      -5.0      2.492      4.793
REMARK  Name = 
REMARK  2 active torsions:
REMARK  status: ('A' for Active; 'I' for Inactive)
REMARK    1  A    between atoms: C_2  and  C_3
REMARK    2  A    between atoms: C_11  and  C_13
REMARK                            x       y       z     vdW  Elec       q    Type
REMARK                         _______ _______ _______ _____ _____    ______ ____
ROOT
ATOM      1  C   UNL     1       6.584   2.288  22.807  0.00  0.00    +0.000 C 
ATOM      2  O   UNL     1       5.559   2.567  22.213  0.00  0.00    +0.000 OA
ATOM      3  N   UNL     1       7.589   1.643  22.159  0.00  0.00    +0.000 N 
ATOM      4  C   UNL     1       7.267   0.467  21.371  0.00  0.00    +0.000 C 
ATOM      5  C   UNL     1       8.544  -0.179  20.864  0.00  0.00    +0.000 C 
ATOM      6  N   UNL     1       9.624   0.054  21.806  0.00  0.00    +0.000 N 
ATOM      7  C   UNL     1      10.011   1.418  22.128  0.00  0.00    +0.000 C 
ATOM      8  C   UNL     1       8.833   2.351  21.922  0.00  0.00    +0.000 C 
ATOM      9  C   UNL     1       9.995  -0.943  22.644  0.00  0.00    +0.000 C 
ATOM     10  O   UNL     1      10.702  -1.844  22.293  0.00  0.00    +0.000 OA
ENDROOT
BRANCH   9  11
ATOM     11  C   UNL     1       9.060  -1.019  23.695  0.00  0.00    +0.000 A 
ATOM     12  O   UNL     1       8.402  -2.233  23.659  0.00  0.00    +0.000 OA
ATOM     13  C   UNL     1       8.105  -2.483  25.003  0.00  0.00    +0.000 A 
ATOM     14  C   UNL     1       8.666  -1.484  25.964  0.00  0.00    +0.000 A 
ATOM     15  C   UNL     1       9.474  -0.574  25.039  0.00  0.00    +0.000 A 
ENDBRANCH   9  11
BRANCH   1  17
ATOM     16 CL   UNL     1       6.994   2.036  25.463  0.00  0.00    +0.000 Cl
ATOM     17  C   UNL     1       7.016   3.086  24.024  0.00  0.00    +0.000 C 
ENDBRANCH   1  17
TORSDOF 2
ENDMDL
