MODEL 1
REMARK VINA RESULT:      -5.7      0.000      0.000
REMARK  Name = 
REMARK  0 active torsions:
REMARK  status: ('A' for Active; 'I' for Inactive)
REMARK                            x       y       z     vdW  Elec       q    Type
REMARK                         _______ _______ _______ _____ _____    ______ ____
ROOT
ATOM      1  C   UNL     1       7.403   0.228  19.235  0.00  0.00    +0.000 C 
ATOM      2  C   UNL     1       8.231   0.013  20.554  0.00  0.00    +0.000 C 
ATOM      3  C   UNL     1       7.589   1.030  21.509  0.00  0.00    +0.000 C 
ATOM      4  C   UNL     1       7.058   0.331  22.762  0.00  0.00    +0.000 C 
ATOM      5  C   UNL     1       7.676   1.133  23.973  0.00  0.00    +0.000 C 
ATOM      6  N   UNL     1       9.022   1.556  23.307  0.00  0.00    +0.000 N 
ATOM      7  C   UNL     1       8.636   2.061  21.933  0.00  0.00    +0.000 C 
ATOM      8  C   UNL     1       9.992   0.644  23.438  0.00  0.00    +0.000 A 
ATOM      9  C   UNL     1      10.212  -0.205  22.047  0.00  0.00    +0.000 A 
ATOM     10  N   UNL     1       9.821  -1.465  22.242  0.00  0.00    +0.000 NA
ATOM     11  C   UNL     1       9.513  -2.245  23.251  0.00  0.00    +0.000 A 
ATOM     12  C   UNL     1       9.324  -1.441  24.603  0.00  0.00    +0.000 A 
ATOM     13  N   UNL     1       9.725  -0.185  24.420  0.00  0.00    +0.000 NA
ATOM     14  C   UNL     1       6.446   1.659  20.740  0.00  0.00    +0.000 C 
ATOM     15  O   UNL     1       6.162   0.752  19.676  0.00  0.00    +0.000 OA
ENDROOT
TORSDOF 0
ENDMDL
MODEL 2
REMARK VINA RESULT:      -5.5      2.561      4.504
REMARK  Name = 
REMARK  0 active torsions:
REMARK  status: ('A' for Active; 'I' for Inactive)
REMARK                            x       y       z     vdW  Elec       q    Type
REMARK                         _______ _______ _______ _____ _____    ______ ____
ROOT
ATOM      1  C   UNL     1       7.696  -4.776  23.360  0.00  0.00    +0.000 C 
ATOM      2  C   UNL     1       7.800  -3.231  23.081  0.00  0.00    +0.000 C 
ATOM      3  C   UNL     1       8.744  -2.763  24.198  0.00  0.00    +0.000 C 
ATOM      4  C   UNL     1       9.974  -2.070  23.608  0.00  0.00    +0.000 C 
ATOM      5  C   UNL     1      10.065  -0.686  24.360  0.00  0.00    +0.000 C 
ATOM      6  N   UNL     1       8.541  -0.447  24.591  0.00  0.00    +0.000 N 
ATOM      7  C   UNL     1       8.011  -1.771  25.101  0.00  0.00    +0.000 C 
ATOM      8  C   UNL     1       7.936   0.169  23.569  0.00  0.00    +0.000 A 
ATOM      9  C   UNL     1       7.066  -0.890  22.659  0.00  0.00    +0.000 A 
ATOM     10  N   UNL     1       7.646  -1.013  21.465  0.00  0.00    +0.000 NA
ATOM     11  C   UNL     1       8.565  -0.396  20.759  0.00  0.00    +0.000 A 
ATOM     12  C   UNL     1       9.392   0.646  21.619  0.00  0.00    +0.000 A 
ATOM     13  N   UNL     1       8.812   0.783  22.809  0.00  0.00    +0.000 NA
ATOM     14  C   UNL     1       9.160  -4.015  24.943  0.00  0.00    +0.000 C 
ATOM     15  O   UNL     1       8.894  -5.094  24.048  0.00  0.00    +0.000 OA
ENDROOT
TORSDOF 0
ENDMDL
MODEL 3
REMARK VINA RESULT:      -5.5      1.097      2.803
REMARK  Name = 
REMARK  0 active torsions:
REMARK  status: ('A' for Active; 'I' for Inactive)
REMARK                            x       y       z     vdW  Elec       q    Type
REMARK                         _______ _______ _______ _____ _____    ______ ____
ROOT
ATOM      1  C   UNL     1       6.458   1.403  20.578  0.00  0.00    +0.000 C 
ATOM      2  C   UNL     1       7.298   0.975  21.837  0.00  0.00    +0.000 C 
ATOM      3  C   UNL     1       8.065  -0.248  21.314  0.00  0.00    +0.000 C 
ATOM      4  C   UNL     1       9.574  -0.041  21.461  0.00  0.00    +0.000 C 
ATOM      5  C   UNL     1      10.093  -1.325  22.217  0.00  0.00    +0.000 C 
ATOM      6  N   UNL     1       8.826  -1.614  23.079  0.00  0.00    +0.000 N 
ATOM      7  C   UNL     1       7.662  -1.484  22.120  0.00  0.00    +0.000 C 
ATOM      8  C   UNL     1       8.811  -0.957  24.244  0.00  0.00    +0.000 A 
ATOM      9  C   UNL     1       7.799   0.338  24.191  0.00  0.00    +0.000 A 
ATOM     10  N   UNL     1       8.523   1.457  24.251  0.00  0.00    +0.000 NA
ATOM     11  C   UNL     1       9.755   1.807  24.537  0.00  0.00    +0.000 A 
ATOM     12  C   UNL     1      10.735   0.564  24.616  0.00  0.00    +0.000 A 
ATOM     13  N   UNL     1      10.018  -0.557  24.570  0.00  0.00    +0.000 NA
ATOM     14  C   UNL     1       7.698  -0.375  19.850  0.00  0.00    +0.000 C 
ATOM     15  O   UNL     1       7.195   0.906  19.474  0.00  0.00    +0.000 OA
ENDROOT
TORSDOF 0
ENDMDL
MODEL 4
REMARK VINA RESULT:      -5.5      1.832      2.723
REMARK  Name = 
REMARK  0 active torsions:
REMARK  status: ('A' for Active; 'I' for Inactive)
REMARK                            x       y       z     vdW  Elec       q    Type
REMARK                         _______ _______ _______ _____ _____    ______ ____
ROOT
ATOM      1  C   UNL     1       7.384  -3.393  22.267  0.00  0.00    +0.000 C 
ATOM      2  C   UNL     1       8.275  -2.132  22.569  0.00  0.00    +0.000 C 
ATOM      3  C   UNL     1       7.543  -1.026  21.795  0.00  0.00    +0.000 C 
ATOM      4  C   UNL     1       7.141   0.113  22.734  0.00  0.00    +0.000 C 
ATOM      5  C   UNL     1       7.695   1.423  22.050  0.00  0.00    +0.000 C 
ATOM      6  N   UNL     1       8.956   0.812  21.366  0.00  0.00    +0.000 N 
ATOM      7  C   UNL     1       8.467  -0.465  20.715  0.00  0.00    +0.000 C 
ATOM      8  C   UNL     1      10.035   0.791  22.156  0.00  0.00    +0.000 A 
ATOM      9  C   UNL     1      10.313  -0.716  22.754  0.00  0.00    +0.000 A 
ATOM     10  N   UNL     1      10.087  -0.709  24.068  0.00  0.00    +0.000 NA
ATOM     11  C   UNL     1       9.910   0.174  25.023  0.00  0.00    +0.000 A 
ATOM     12  C   UNL     1       9.667   1.635  24.459  0.00  0.00    +0.000 A 
ATOM     13  N   UNL     1       9.903   1.639  23.149  0.00  0.00    +0.000 NA
ATOM     14  C   UNL     1       6.306  -1.676  21.209  0.00  0.00    +0.000 C 
ATOM     15  O   UNL     1       6.103  -2.862  21.976  0.00  0.00    +0.000 OA
ENDROOT
TORSDOF 0
ENDMDL
MODEL 5
REMARK VINA RESULT:      -5.4      2.369      4.647
REMARK  Name = 
REMARK  0 active torsions:
REMARK  status: ('A' for Active; 'I' for Inactive)
REMARK                            x       y       z     vdW  Elec       q    Type
REMARK                         _______ _______ _______ _____ _____    ______ ____
ROOT
ATOM      1  C   UNL     1       8.835  -0.844  26.808  0.00  0.00    +0.000 C 
ATOM      2  C   UNL     1       9.091  -0.471  25.302  0.00  0.00    +0.000 C 
ATOM      3  C   UNL     1       8.639  -1.743  24.571  0.00  0.00    +0.000 C 
ATOM      4  C   UNL     1       7.538  -1.421  23.559  0.00  0.00    +0.000 C 
ATOM      5  C   UNL     1       8.031  -2.052  22.200  0.00  0.00    +0.000 C 
ATOM      6  N   UNL     1       9.567  -1.877  22.408  0.00  0.00    +0.000 N 
ATOM      7  C   UNL     1       9.826  -2.349  23.823  0.00  0.00    +0.000 C 
ATOM      8  C   UNL     1      10.029  -0.689  22.002  0.00  0.00    +0.000 A 
ATOM      9  C   UNL     1      10.304   0.315  23.275  0.00  0.00    +0.000 A 
ATOM     10  N   UNL     1       9.421   1.314  23.237  0.00  0.00    +0.000 NA
ATOM     11  C   UNL     1       8.556   1.820  22.389  0.00  0.00    +0.000 A 
ATOM     12  C   UNL     1       8.303   0.872  21.145  0.00  0.00    +0.000 A 
ATOM     13  N   UNL     1       9.189  -0.121  21.169  0.00  0.00    +0.000 NA
ATOM     14  C   UNL     1       8.104  -2.671  25.643  0.00  0.00    +0.000 C 
ATOM     15  O   UNL     1       7.820  -1.832  26.761  0.00  0.00    +0.000 OA
ENDROOT
TORSDOF 0
ENDMDL
MODEL 6
REMARK VINA RESULT:      -5.3      1.995      2.934
REMARK  Name = 
REMARK  0 active torsions:
REMARK  status: ('A' for Active; 'I' for Inactive)
REMARK                            x       y       z     vdW  Elec       q    Type
REMARK                         _______ _______ _______ _____ _____    ______ ____
ROOT
ATOM      1  C   UNL     1       7.014   3.523  21.983  0.00  0.00    +0.000 C 
ATOM      2  C   UNL     1       7.509   2.042  21.791  0.00  0.00    +0.000 C 
ATOM      3  C   UNL     1       8.664   1.954  22.800  0.00  0.00    +0.000 C 
ATOM      4  C   UNL     1       8.420   0.822  23.799  0.00  0.00    +0.000 C 
ATOM      5  C   UNL     1       9.741  -0.041  23.772  0.00  0.00    +0.000 C 
ATOM      6  N   UNL     1      10.135   0.186  22.281  0.00  0.00    +0.000 N 
ATOM      7  C   UNL     1       9.969   1.674  22.055  0.00  0.00    +0.000 C 
ATOM      8  C   UNL     1       9.570  -0.687  21.440  0.00  0.00    +0.000 A 
ATOM      9  C   UNL     1       8.308  -0.010  20.630  0.00  0.00    +0.000 A 
ATOM     10  N   UNL     1       7.174  -0.581  21.040  0.00  0.00    +0.000 NA
ATOM     11  C   UNL     1       6.807  -1.635  21.732  0.00  0.00    +0.000 A 
ATOM     12  C   UNL     1       8.020  -2.310  22.496  0.00  0.00    +0.000 A 
ATOM     13  N   UNL     1       9.157  -1.754  22.082  0.00  0.00    +0.000 NA
ATOM     14  C   UNL     1       8.690   3.287  23.520  0.00  0.00    +0.000 C 
ATOM     15  O   UNL     1       7.401   3.858  23.305  0.00  0.00    +0.000 OA
ENDROOT
TORSDOF 0
ENDMDL
MODEL 7
REMARK VINA RESULT:      -5.3      1.440      1.824
REMARK  Name = 
REMARK  0 active torsions:
REMARK  status: ('A' for Active; 'I' for Inactive)
REMARK                            x       y       z     vdW  Elec       q    Type
REMARK                         _______ _______ _______ _____ _____    ______ ____
ROOT
ATOM      1  C   UNL     1       6.668   1.372  20.672  0.00  0.00    +0.000 C 
ATOM      2  C   UNL     1       7.561   0.316  21.422  0.00  0.00    +0.000 C 
ATOM      3  C   UNL     1       8.415   1.205  22.338  0.00  0.00    +0.000 C 
ATOM      4  C   UNL     1       8.234   0.801  23.801  0.00  0.00    +0.000 C 
ATOM      5  C   UNL     1       9.698   0.596  24.355  0.00  0.00    +0.000 C 
ATOM      6  N   UNL     1      10.374   0.098  23.040  0.00  0.00    +0.000 N 
ATOM      7  C   UNL     1       9.890   1.049  21.967  0.00  0.00    +0.000 C 
ATOM      8  C   UNL     1      10.277  -1.224  22.858  0.00  0.00    +0.000 A 
ATOM      9  C   UNL     1       9.122  -1.595  21.748  0.00  0.00    +0.000 A 
ATOM     10  N   UNL     1       8.110  -2.207  22.364  0.00  0.00    +0.000 NA
ATOM     11  C   UNL     1       7.870  -2.763  23.528  0.00  0.00    +0.000 A 
ATOM     12  C   UNL     1       8.990  -2.433  24.599  0.00  0.00    +0.000 A 
ATOM     13  N   UNL     1      10.010  -1.833  23.989  0.00  0.00    +0.000 NA
ATOM     14  C   UNL     1       7.918   2.621  22.124  0.00  0.00    +0.000 C 
ATOM     15  O   UNL     1       6.619   2.483  21.551  0.00  0.00    +0.000 OA
ENDROOT
TORSDOF 0
ENDMDL
MODEL 8
REMARK VINA RESULT:      -5.3      2.458      3.288
REMARK  Name = 
REMARK  0 active torsions:
REMARK  status: ('A' for Active; 'I' for Inactive)
REMARK                            x       y       z     vdW  Elec       q    Type
REMARK                         _______ _______ _______ _____ _____    ______ ____
ROOT
ATOM      1  C   UNL     1       6.472  -4.326  21.789  0.00  0.00    +0.000 C 
ATOM      2  C   UNL     1       7.394  -3.565  22.811  0.00  0.00    +0.000 C 
ATOM      3  C   UNL     1       7.233  -2.104  22.368  0.00  0.00    +0.000 C 
ATOM      4  C   UNL     1       6.720  -1.244  23.524  0.00  0.00    +0.000 C 
ATOM      5  C   UNL     1       7.725  -0.029  23.609  0.00  0.00    +0.000 C 
ATOM      6  N   UNL     1       9.016  -0.764  23.131  0.00  0.00    +0.000 N 
ATOM      7  C   UNL     1       8.587  -1.557  21.915  0.00  0.00    +0.000 C 
ATOM      8  C   UNL     1       9.686  -1.364  24.122  0.00  0.00    +0.000 A 
ATOM      9  C   UNL     1       9.431  -2.988  24.122  0.00  0.00    +0.000 A 
ATOM     10  N   UNL     1       8.724  -3.316  25.204  0.00  0.00    +0.000 NA
ATOM     11  C   UNL     1       8.361  -2.761  26.337  0.00  0.00    +0.000 A 
ATOM     12  C   UNL     1       8.627  -1.199  26.358  0.00  0.00    +0.000 A 
ATOM     13  N   UNL     1       9.343  -0.866  25.286  0.00  0.00    +0.000 NA
ATOM     14  C   UNL     1       6.218  -2.120  21.242  0.00  0.00    +0.000 C 
ATOM     15  O   UNL     1       5.521  -3.357  21.380  0.00  0.00    +0.000 OA
ENDROOT
TORSDOF 0
ENDMDL
MODEL 9
REMARK VINA RESULT:      -5.3      4.592      5.305
REMARK  Name = 
REMARK  0 active torsions:
REMARK  status: ('A' for Active; 'I' for Inactive)
REMARK                            x       y       z     vdW  Elec       q    Type
REMARK                         _______ _______ _______ _____ _____    ______ ____
ROOT
ATOM      1  C   UNL     1       6.520  -5.469  21.299  0.00  0.00    +0.000 C 
ATOM      2  C   UNL     1       7.215  -4.846  22.566  0.00  0.00    +0.000 C 
ATOM      3  C   UNL     1       6.012  -4.439  23.429  0.00  0.00    +0.000 C 
ATOM      4  C   UNL     1       6.080  -5.115  24.799  0.00  0.00    +0.000 C 
ATOM      5  C   UNL     1       5.917  -3.942  25.843  0.00  0.00    +0.000 C 
ATOM      6  N   UNL     1       6.602  -2.806  25.023  0.00  0.00    +0.000 N 
ATOM      7  C   UNL     1       6.020  -2.924  23.630  0.00  0.00    +0.000 C 
ATOM      8  C   UNL     1       7.927  -2.749  25.194  0.00  0.00    +0.000 A 
ATOM      9  C   UNL     1       8.727  -3.397  23.911  0.00  0.00    +0.000 A 
ATOM     10  N   UNL     1       9.325  -4.525  24.299  0.00  0.00    +0.000 NA
ATOM     11  C   UNL     1       9.618  -5.137  25.422  0.00  0.00    +0.000 A 
ATOM     12  C   UNL     1       8.873  -4.504  26.669  0.00  0.00    +0.000 A 
ATOM     13  N   UNL     1       8.284  -3.371  26.293  0.00  0.00    +0.000 NA
ATOM     14  C   UNL     1       4.783  -4.910  22.677  0.00  0.00    +0.000 C 
ATOM     15  O   UNL     1       5.254  -5.902  21.766  0.00  0.00    +0.000 OA
ENDROOT
TORSDOF 0
ENDMDL
