MODEL 1
REMARK VINA RESULT:      -6.0      0.000      0.000
REMARK  Name = 
REMARK  3 active torsions:
REMARK  status: ('A' for Active; 'I' for Inactive)
REMARK    1  A    between atoms: N_4  and  C_5
REMARK    2  A    between atoms: C_5  and  C_6
REMARK    3  A    between atoms: C_9  and  S_12
REMARK                            x       y       z     vdW  Elec       q    Type
REMARK                         _______ _______ _______ _____ _____    ______ ____
ROOT
ATOM      1  C   UNL     1       7.242  -0.118  21.519  0.00  0.00    +0.000 A 
ATOM      2  C   UNL     1       8.265   1.129  21.175  0.00  0.00    +0.000 A 
ATOM      3  C   UNL     1       9.629   0.754  21.672  0.00  0.00    +0.000 A 
ATOM      4  C   UNL     1      10.149  -0.107  22.771  0.00  0.00    +0.000 A 
ATOM      5  C   UNL     1       9.198  -1.236  23.100  0.00  0.00    +0.000 A 
ATOM      6  C   UNL     1       7.916  -1.237  22.239  0.00  0.00    +0.000 A 
ENDROOT
BRANCH   4   7
ATOM      7  S   UNL     1      10.232   1.038  24.186  0.00  0.00    +0.000 S 
ATOM      8  O   UNL     1      11.152   0.518  25.127  0.00  0.00    +0.000 OA
ATOM      9  O   UNL     1       8.852   1.137  24.669  0.00  0.00    +0.000 OA
ATOM     10  N   UNL     1      10.683   2.465  23.592  0.00  0.00    +0.000 NA
ENDBRANCH   4   7
BRANCH   1  11
ATOM     11  C   UNL     1       6.800  -0.661  20.175  0.00  0.00    +0.000 C 
BRANCH  11  15
ATOM     12  C   UNL     1       4.885   1.428  18.939  0.00  0.00    +0.000 C 
ATOM     13  C   UNL     1       6.057   0.663  18.327  0.00  0.00    +0.000 C 
ATOM     14  O   UNL     1       5.812  -0.254  17.540  0.00  0.00    +0.000 OA
ATOM     15  N   UNL     1       7.083   0.430  19.221  0.00  0.00    +0.000 NA
ENDBRANCH  11  15
ENDBRANCH   1  11
TORSDOF 3
ENDMDL
MODEL 2
REMARK VINA RESULT:      -5.5      2.433      5.815
REMARK  Name = 
REMARK  3 active torsions:
REMARK  status: ('A' for Active; 'I' for Inactive)
REMARK    1  A    between atoms: N_4  and  C_5
REMARK    2  A    between atoms: C_5  and  C_6
REMARK    3  A    between atoms: C_9  and  S_12
REMARK                            x       y       z     vdW  Elec       q    Type
REMARK                         _______ _______ _______ _____ _____    ______ ____
ROOT
ATOM      1  C   UNL     1       9.379   1.318  21.493  0.00  0.00    +0.000 A 
ATOM      2  C   UNL     1       7.881   2.003  21.552  0.00  0.00    +0.000 A 
ATOM      3  C   UNL     1       6.870   0.915  21.352  0.00  0.00    +0.000 A 
ATOM      4  C   UNL     1       6.858  -0.391  20.634  0.00  0.00    +0.000 A 
ATOM      5  C   UNL     1       8.237  -1.007  20.560  0.00  0.00    +0.000 A 
ATOM      6  C   UNL     1       9.334  -0.150  21.230  0.00  0.00    +0.000 A 
ENDROOT
BRANCH   4   7
ATOM      7  S   UNL     1       6.316   0.068  18.955  0.00  0.00    +0.000 S 
ATOM      8  O   UNL     1       5.715  -1.065  18.356  0.00  0.00    +0.000 OA
ATOM      9  O   UNL     1       7.531   0.542  18.287  0.00  0.00    +0.000 OA
ATOM     10  N   UNL     1       5.295   1.301  19.126  0.00  0.00    +0.000 NA
ENDBRANCH   4   7
BRANCH   1  11
ATOM     11  C   UNL     1       9.963   1.499  22.881  0.00  0.00    +0.000 C 
BRANCH  11  15
ATOM     12  C   UNL     1       8.816  -0.549  24.892  0.00  0.00    +0.000 C 
ATOM     13  C   UNL     1      10.258  -0.157  24.580  0.00  0.00    +0.000 C 
ATOM     14  O   UNL     1      10.868   0.535  25.398  0.00  0.00    +0.000 OA
ATOM     15  N   UNL     1      10.463   0.160  23.252  0.00  0.00    +0.000 NA
ENDBRANCH  11  15
ENDBRANCH   1  11
TORSDOF 3
ENDMDL
MODEL 3
REMARK VINA RESULT:      -5.2      2.358      2.659
REMARK  Name = 
REMARK  3 active torsions:
REMARK  status: ('A' for Active; 'I' for Inactive)
REMARK    1  A    between atoms: N_4  and  C_5
REMARK    2  A    between atoms: C_5  and  C_6
REMARK    3  A    between atoms: C_9  and  S_12
REMARK                            x       y       z     vdW  Elec       q    Type
REMARK                         _______ _______ _______ _____ _____    ______ ____
ROOT
ATOM      1  C   UNL     1       7.845   0.652  21.929  0.00  0.00    +0.000 A 
ATOM      2  C   UNL     1       9.068  -0.185  21.206  0.00  0.00    +0.000 A 
ATOM      3  C   UNL     1       8.891  -1.635  21.538  0.00  0.00    +0.000 A 
ATOM      4  C   UNL     1       8.299  -2.390  22.679  0.00  0.00    +0.000 A 
ATOM      5  C   UNL     1       7.193  -1.610  23.355  0.00  0.00    +0.000 A 
ATOM      6  C   UNL     1       6.936  -0.224  22.725  0.00  0.00    +0.000 A 
ENDROOT
BRANCH   4   7
ATOM      7  S   UNL     1       9.701  -2.562  23.831  0.00  0.00    +0.000 S 
ATOM      8  O   UNL     1      10.900  -2.371  23.103  0.00  0.00    +0.000 OA
ATOM      9  O   UNL     1       9.544  -3.896  24.415  0.00  0.00    +0.000 OA
ATOM     10  N   UNL     1       9.484  -1.456  24.981  0.00  0.00    +0.000 NA
ENDBRANCH   4   7
BRANCH   1  11
ATOM     11  C   UNL     1       7.021   1.227  20.794  0.00  0.00    +0.000 C 
BRANCH  11  15
ATOM     12  C   UNL     1       5.722   1.035  17.995  0.00  0.00    +0.000 C 
ATOM     13  C   UNL     1       6.422  -0.023  18.845  0.00  0.00    +0.000 C 
ATOM     14  O   UNL     1       5.732  -0.885  19.393  0.00  0.00    +0.000 OA
ATOM     15  N   UNL     1       7.463   0.482  19.598  0.00  0.00    +0.000 NA
ENDBRANCH  11  15
ENDBRANCH   1  11
TORSDOF 3
ENDMDL
MODEL 4
REMARK VINA RESULT:      -5.2      2.797      3.249
REMARK  Name = 
REMARK  3 active torsions:
REMARK  status: ('A' for Active; 'I' for Inactive)
REMARK    1  A    between atoms: N_4  and  C_5
REMARK    2  A    between atoms: C_5  and  C_6
REMARK    3  A    between atoms: C_9  and  S_12
REMARK                            x       y       z     vdW  Elec       q    Type
REMARK                         _______ _______ _______ _____ _____    ______ ____
ROOT
ATOM      1  C   UNL     1       7.937  -0.921  21.269  0.00  0.00    +0.000 A 
ATOM      2  C   UNL     1       7.039  -0.904  22.652  0.00  0.00    +0.000 A 
ATOM      3  C   UNL     1       7.979  -1.031  23.812  0.00  0.00    +0.000 A 
ATOM      4  C   UNL     1       9.313  -1.661  24.022  0.00  0.00    +0.000 A 
ATOM      5  C   UNL     1      10.126  -1.697  22.747  0.00  0.00    +0.000 A 
ATOM      6  C   UNL     1       9.397  -1.087  21.530  0.00  0.00    +0.000 A 
ENDROOT
BRANCH   4   7
ATOM      7  S   UNL     1       8.890  -3.365  24.511  0.00  0.00    +0.000 S 
ATOM      8  O   UNL     1       8.229  -3.319  25.761  0.00  0.00    +0.000 OA
ATOM      9  O   UNL     1      10.168  -4.080  24.519  0.00  0.00    +0.000 OA
ATOM     10  N   UNL     1       7.963  -3.960  23.335  0.00  0.00    +0.000 NA
ENDBRANCH   4   7
BRANCH   1  11
ATOM     11  C   UNL     1       7.753   0.450  20.649  0.00  0.00    +0.000 C 
BRANCH  11  15
ATOM     12  C   UNL     1       5.432   1.311  18.797  0.00  0.00    +0.000 C 
ATOM     13  C   UNL     1       6.219   0.004  18.869  0.00  0.00    +0.000 C 
ATOM     14  O   UNL     1       5.668  -0.986  19.354  0.00  0.00    +0.000 OA
ATOM     15  N   UNL     1       7.545   0.183  19.211  0.00  0.00    +0.000 NA
ENDBRANCH  11  15
ENDBRANCH   1  11
TORSDOF 3
ENDMDL
MODEL 5
REMARK VINA RESULT:      -5.1      3.306      5.884
REMARK  Name = 
REMARK  3 active torsions:
REMARK  status: ('A' for Active; 'I' for Inactive)
REMARK    1  A    between atoms: N_4  and  C_5
REMARK    2  A    between atoms: C_5  and  C_6
REMARK    3  A    between atoms: C_9  and  S_12
REMARK                            x       y       z     vdW  Elec       q    Type
REMARK                         _______ _______ _______ _____ _____    ______ ____
ROOT
ATOM      1  C   UNL     1       8.107  -1.645  23.112  0.00  0.00    +0.000 A 
ATOM      2  C   UNL     1       9.007  -1.698  21.731  0.00  0.00    +0.000 A 
ATOM      3  C   UNL     1       8.884  -0.368  21.052  0.00  0.00    +0.000 A 
ATOM      4  C   UNL     1       7.839   0.693  20.995  0.00  0.00    +0.000 A 
ATOM      5  C   UNL     1       7.000   0.725  22.253  0.00  0.00    +0.000 A 
ATOM      6  C   UNL     1       7.405  -0.341  23.295  0.00  0.00    +0.000 A 
ENDROOT
BRANCH   4   7
ATOM      7  S   UNL     1       6.797   0.171  19.594  0.00  0.00    +0.000 S 
ATOM      8  O   UNL     1       6.167  -1.049  19.938  0.00  0.00    +0.000 OA
ATOM      9  O   UNL     1       7.716   0.085  18.456  0.00  0.00    +0.000 OA
ATOM     10  N   UNL     1       5.750   1.366  19.334  0.00  0.00    +0.000 NA
ENDBRANCH   4   7
BRANCH   1  11
ATOM     11  C   UNL     1       9.101  -1.774  24.249  0.00  0.00    +0.000 C 
BRANCH  11  15
ATOM     12  C   UNL     1       7.988  -4.653  24.082  0.00  0.00    +0.000 C 
ATOM     13  C   UNL     1       9.288  -4.119  24.678  0.00  0.00    +0.000 C 
ATOM     14  O   UNL     1       9.393  -4.066  25.905  0.00  0.00    +0.000 OA
ATOM     15  N   UNL     1       9.807  -3.044  23.984  0.00  0.00    +0.000 NA
ENDBRANCH  11  15
ENDBRANCH   1  11
TORSDOF 3
ENDMDL
MODEL 6
REMARK VINA RESULT:      -5.1      4.382      5.058
REMARK  Name = 
REMARK  3 active torsions:
REMARK  status: ('A' for Active; 'I' for Inactive)
REMARK    1  A    between atoms: N_4  and  C_5
REMARK    2  A    between atoms: C_5  and  C_6
REMARK    3  A    between atoms: C_9  and  S_12
REMARK                            x       y       z     vdW  Elec       q    Type
REMARK                         _______ _______ _______ _____ _____    ______ ____
ROOT
ATOM      1  C   UNL     1       7.033  -2.183  23.372  0.00  0.00    +0.000 A 
ATOM      2  C   UNL     1       8.571  -2.535  23.852  0.00  0.00    +0.000 A 
ATOM      3  C   UNL     1       8.614  -3.984  24.232  0.00  0.00    +0.000 A 
ATOM      4  C   UNL     1       7.625  -4.961  24.770  0.00  0.00    +0.000 A 
ATOM      5  C   UNL     1       6.213  -4.623  24.348  0.00  0.00    +0.000 A 
ATOM      6  C   UNL     1       6.114  -3.354  23.473  0.00  0.00    +0.000 A 
ENDROOT
BRANCH   4   7
ATOM      7  S   UNL     1       7.778  -4.749  26.574  0.00  0.00    +0.000 S 
ATOM      8  O   UNL     1       9.123  -4.426  26.871  0.00  0.00    +0.000 OA
ATOM      9  O   UNL     1       7.313  -6.018  27.140  0.00  0.00    +0.000 OA
ATOM     10  N   UNL     1       6.748  -3.581  26.985  0.00  0.00    +0.000 NA
ENDBRANCH   4   7
BRANCH   1  11
ATOM     11  C   UNL     1       7.138  -1.830  21.902  0.00  0.00    +0.000 C 
BRANCH  11  15
ATOM     12  C   UNL     1       7.697   0.067  19.525  0.00  0.00    +0.000 C 
ATOM     13  C   UNL     1       8.208   0.092  20.964  0.00  0.00    +0.000 C 
ATOM     14  O   UNL     1       9.378  -0.235  21.177  0.00  0.00    +0.000 OA
ATOM     15  N   UNL     1       7.281  -0.360  21.882  0.00  0.00    +0.000 NA
ENDBRANCH  11  15
ENDBRANCH   1  11
TORSDOF 3
ENDMDL
MODEL 7
REMARK VINA RESULT:      -5.1      4.075      5.164
REMARK  Name = 
REMARK  3 active torsions:
REMARK  status: ('A' for Active; 'I' for Inactive)
REMARK    1  A    between atoms: N_4  and  C_5
REMARK    2  A    between atoms: C_5  and  C_6
REMARK    3  A    between atoms: C_9  and  S_12
REMARK                            x       y       z     vdW  Elec       q    Type
REMARK                         _______ _______ _______ _____ _____    ______ ____
ROOT
ATOM      1  C   UNL     1       9.797  -0.977  24.549  0.00  0.00    +0.000 A 
ATOM      2  C   UNL     1      10.015  -2.277  23.558  0.00  0.00    +0.000 A 
ATOM      3  C   UNL     1       8.785  -3.128  23.640  0.00  0.00    +0.000 A 
ATOM      4  C   UNL     1       7.753  -3.390  24.683  0.00  0.00    +0.000 A 
ATOM      5  C   UNL     1       7.571  -2.206  25.605  0.00  0.00    +0.000 A 
ATOM      6  C   UNL     1       8.489  -1.011  25.267  0.00  0.00    +0.000 A 
ENDROOT
BRANCH   4   7
ATOM      7  S   UNL     1       8.464  -4.779  25.625  0.00  0.00    +0.000 S 
ATOM      8  O   UNL     1       9.208  -4.249  26.706  0.00  0.00    +0.000 OA
ATOM      9  O   UNL     1       9.254  -5.529  24.647  0.00  0.00    +0.000 OA
ATOM     10  N   UNL     1       7.223  -5.687  26.105  0.00  0.00    +0.000 NA
ENDBRANCH   4   7
BRANCH   1  11
ATOM     11  C   UNL     1       9.766   0.230  23.634  0.00  0.00    +0.000 C 
BRANCH  11  15
ATOM     12  C   UNL     1       8.585  -0.178  20.806  0.00  0.00    +0.000 C 
ATOM     13  C   UNL     1       8.230   0.827  21.900  0.00  0.00    +0.000 C 
ATOM     14  O   UNL     1       8.577   2.000  21.753  0.00  0.00    +0.000 OA
ATOM     15  N   UNL     1       8.365   0.315  23.176  0.00  0.00    +0.000 NA
ENDBRANCH  11  15
ENDBRANCH   1  11
TORSDOF 3
ENDMDL
MODEL 8
REMARK VINA RESULT:      -5.0      1.819      2.456
REMARK  Name = 
REMARK  3 active torsions:
REMARK  status: ('A' for Active; 'I' for Inactive)
REMARK    1  A    between atoms: N_4  and  C_5
REMARK    2  A    between atoms: C_5  and  C_6
REMARK    3  A    between atoms: C_9  and  S_12
REMARK                            x       y       z     vdW  Elec       q    Type
REMARK                         _______ _______ _______ _____ _____    ______ ____
ROOT
ATOM      1  C   UNL     1       8.423   0.754  20.996  0.00  0.00    +0.000 A 
ATOM      2  C   UNL     1       9.145  -0.512  21.766  0.00  0.00    +0.000 A 
ATOM      3  C   UNL     1       8.316  -0.852  22.967  0.00  0.00    +0.000 A 
ATOM      4  C   UNL     1       7.417  -0.086  23.877  0.00  0.00    +0.000 A 
ATOM      5  C   UNL     1       6.774   1.089  23.174  0.00  0.00    +0.000 A 
ATOM      6  C   UNL     1       7.196   1.233  21.696  0.00  0.00    +0.000 A 
ENDROOT
BRANCH   4   7
ATOM      7  S   UNL     1       8.557   0.532  25.158  0.00  0.00    +0.000 S 
ATOM      8  O   UNL     1       9.202   1.688  24.659  0.00  0.00    +0.000 OA
ATOM      9  O   UNL     1       9.450  -0.595  25.439  0.00  0.00    +0.000 OA
ATOM     10  N   UNL     1       7.659   0.828  26.461  0.00  0.00    +0.000 NA
ENDBRANCH   4   7
BRANCH   1  11
ATOM     11  C   UNL     1       7.982   0.213  19.651  0.00  0.00    +0.000 C 
BRANCH  11  15
ATOM     12  C   UNL     1       5.719  -1.883  19.866  0.00  0.00    +0.000 C 
ATOM     13  C   UNL     1       5.834  -0.623  19.011  0.00  0.00    +0.000 C 
ATOM     14  O   UNL     1       6.047  -0.751  17.803  0.00  0.00    +0.000 OA
ATOM     15  N   UNL     1       6.517   0.402  19.636  0.00  0.00    +0.000 NA
ENDBRANCH  11  15
ENDBRANCH   1  11
TORSDOF 3
ENDMDL
MODEL 9
REMARK VINA RESULT:      -5.0      4.154      6.114
REMARK  Name = 
REMARK  3 active torsions:
REMARK  status: ('A' for Active; 'I' for Inactive)
REMARK    1  A    between atoms: N_4  and  C_5
REMARK    2  A    between atoms: C_5  and  C_6
REMARK    3  A    between atoms: C_9  and  S_12
REMARK                            x       y       z     vdW  Elec       q    Type
REMARK                         _______ _______ _______ _____ _____    ______ ____
ROOT
ATOM      1  C   UNL     1       8.229  -2.177  25.308  0.00  0.00    +0.000 A 
ATOM      2  C   UNL     1       8.840  -2.777  23.898  0.00  0.00    +0.000 A 
ATOM      3  C   UNL     1       9.958  -1.880  23.464  0.00  0.00    +0.000 A 
ATOM      4  C   UNL     1      10.277  -0.434  23.638  0.00  0.00    +0.000 A 
ATOM      5  C   UNL     1       9.696   0.120  24.920  0.00  0.00    +0.000 A 
ATOM      6  C   UNL     1       8.908  -0.922  25.744  0.00  0.00    +0.000 A 
ENDROOT
BRANCH   4   7
ATOM      7  S   UNL     1       9.443   0.345  22.217  0.00  0.00    +0.000 S 
ATOM      8  O   UNL     1       9.430  -0.581  21.146  0.00  0.00    +0.000 OA
ATOM      9  O   UNL     1      10.207   1.568  21.960  0.00  0.00    +0.000 OA
ATOM     10  N   UNL     1       7.966   0.744  22.718  0.00  0.00    +0.000 NA
ENDBRANCH   4   7
BRANCH   1  11
ATOM     11  C   UNL     1       8.528  -3.228  26.359  0.00  0.00    +0.000 C 
BRANCH  11  15
ATOM     12  C   UNL     1       5.889  -4.833  26.221  0.00  0.00    +0.000 C 
ATOM     13  C   UNL     1       7.335  -5.301  26.377  0.00  0.00    +0.000 C 
ATOM     14  O   UNL     1       7.704  -5.708  27.480  0.00  0.00    +0.000 OA
ATOM     15  N   UNL     1       8.240  -4.514  25.692  0.00  0.00    +0.000 NA
ENDBRANCH  11  15
ENDBRANCH   1  11
TORSDOF 3
ENDMDL
