MODEL 1
REMARK VINA RESULT:      -5.1      0.000      0.000
REMARK  Name = 
REMARK  3 active torsions:
REMARK  status: ('A' for Active; 'I' for Inactive)
REMARK    1  A    between atoms: C_5  and  C_7
REMARK    2  A    between atoms: N_9  and  C_10
REMARK    3  A    between atoms: C_10  and  C_11
REMARK                            x       y       z     vdW  Elec       q    Type
REMARK                         _______ _______ _______ _____ _____    ______ ____
ROOT
ATOM      1  C   UNL     1       9.424  -3.876  24.393  0.00  0.00    +0.000 C 
ATOM      2  O   UNL     1      10.050  -4.723  24.973  0.00  0.00    +0.000 OA
ATOM      3  N   UNL     1       9.883  -2.720  24.028  0.00  0.00    +0.000 NA
ENDROOT
BRANCH   1   8
ATOM      4  C   UNL     1       6.019  -5.793  26.179  0.00  0.00    +0.000 C 
ATOM      5  N   UNL     1       6.194  -4.777  25.150  0.00  0.00    +0.000 N 
ATOM      6  C   UNL     1       6.235  -5.262  23.815  0.00  0.00    +0.000 A 
ATOM      7  C   UNL     1       7.491  -4.697  23.194  0.00  0.00    +0.000 A 
ATOM      8  C   UNL     1       8.029  -3.890  24.291  0.00  0.00    +0.000 A 
ATOM      9  N   UNL     1       7.485  -4.160  25.407  0.00  0.00    +0.000 NA
ENDBRANCH   1   8
BRANCH   3  10
ATOM     10  C   UNL     1       8.861  -1.565  23.688  0.00  0.00    +0.000 C 
BRANCH  10  11
ATOM     11  C   UNL     1       9.513  -1.152  22.379  0.00  0.00    +0.000 C 
ATOM     12  C   UNL     1       9.328  -0.143  21.251  0.00  0.00    +0.000 C 
ATOM     13  C   UNL     1       9.680   1.259  21.924  0.00  0.00    +0.000 C 
ATOM     14  C   UNL     1       9.776   0.726  23.431  0.00  0.00    +0.000 C 
ATOM     15  O   UNL     1      10.618  -0.507  23.059  0.00  0.00    +0.000 OA
ENDBRANCH  10  11
ENDBRANCH   3  10
TORSDOF 3
ENDMDL
MODEL 2
REMARK VINA RESULT:      -5.1      1.933      5.759
REMARK  Name = 
REMARK  3 active torsions:
REMARK  status: ('A' for Active; 'I' for Inactive)
REMARK    1  A    between atoms: C_5  and  C_7
REMARK    2  A    between atoms: N_9  and  C_10
REMARK    3  A    between atoms: C_10  and  C_11
REMARK                            x       y       z     vdW  Elec       q    Type
REMARK                         _______ _______ _______ _____ _____    ______ ____
ROOT
ATOM      1  C   UNL     1      10.167  -1.869  23.307  0.00  0.00    +0.000 C 
ATOM      2  O   UNL     1      10.746  -1.824  22.255  0.00  0.00    +0.000 OA
ATOM      3  N   UNL     1       9.778  -2.950  23.906  0.00  0.00    +0.000 NA
ENDROOT
BRANCH   1   8
ATOM      4  C   UNL     1       8.858   2.088  22.266  0.00  0.00    +0.000 C 
ATOM      5  N   UNL     1       8.814   1.287  23.482  0.00  0.00    +0.000 N 
ATOM      6  C   UNL     1       9.900   1.478  24.378  0.00  0.00    +0.000 A 
ATOM      7  C   UNL     1      10.459   0.107  24.672  0.00  0.00    +0.000 A 
ATOM      8  C   UNL     1       9.563  -0.753  23.896  0.00  0.00    +0.000 A 
ATOM      9  N   UNL     1       8.872  -0.101  23.051  0.00  0.00    +0.000 NA
ENDBRANCH   1   8
BRANCH   3  10
ATOM     10  C   UNL     1       8.667  -2.847  25.023  0.00  0.00    +0.000 C 
BRANCH  10  11
ATOM     11  C   UNL     1       8.788  -4.283  25.506  0.00  0.00    +0.000 C 
ATOM     12  C   UNL     1       8.204  -5.210  26.565  0.00  0.00    +0.000 C 
ATOM     13  C   UNL     1       6.702  -5.448  26.087  0.00  0.00    +0.000 C 
ATOM     14  C   UNL     1       6.703  -4.359  24.912  0.00  0.00    +0.000 C 
ATOM     15  O   UNL     1       8.071  -4.797  24.357  0.00  0.00    +0.000 OA
ENDBRANCH  10  11
ENDBRANCH   3  10
TORSDOF 3
ENDMDL
MODEL 3
REMARK VINA RESULT:      -5.0      3.580      4.116
REMARK  Name = 
REMARK  3 active torsions:
REMARK  status: ('A' for Active; 'I' for Inactive)
REMARK    1  A    between atoms: C_5  and  C_7
REMARK    2  A    between atoms: N_9  and  C_10
REMARK    3  A    between atoms: C_10  and  C_11
REMARK                            x       y       z     vdW  Elec       q    Type
REMARK                         _______ _______ _______ _____ _____    ______ ____
ROOT
ATOM      1  C   UNL     1       5.912  -3.082  21.593  0.00  0.00    +0.000 C 
ATOM      2  O   UNL     1       5.490  -4.200  21.463  0.00  0.00    +0.000 OA
ATOM      3  N   UNL     1       5.873  -2.154  20.690  0.00  0.00    +0.000 NA
ENDROOT
BRANCH   1   8
ATOM      4  C   UNL     1       8.527  -4.864  24.499  0.00  0.00    +0.000 C 
ATOM      5  N   UNL     1       8.180  -3.494  24.144  0.00  0.00    +0.000 N 
ATOM      6  C   UNL     1       7.123  -2.917  24.899  0.00  0.00    +0.000 A 
ATOM      7  C   UNL     1       6.125  -2.384  23.900  0.00  0.00    +0.000 A 
ATOM      8  C   UNL     1       6.776  -2.706  22.628  0.00  0.00    +0.000 A 
ATOM      9  N   UNL     1       7.726  -3.539  22.763  0.00  0.00    +0.000 NA
ENDBRANCH   1   8
BRANCH   3  10
ATOM     10  C   UNL     1       6.837  -0.911  20.830  0.00  0.00    +0.000 C 
BRANCH  10  11
ATOM     11  C   UNL     1       6.748  -0.473  19.377  0.00  0.00    +0.000 C 
ATOM     12  C   UNL     1       5.713   0.003  18.365  0.00  0.00    +0.000 C 
ATOM     13  C   UNL     1       5.310   1.458  18.877  0.00  0.00    +0.000 C 
ATOM     14  C   UNL     1       6.089   1.388  20.275  0.00  0.00    +0.000 C 
ATOM     15  O   UNL     1       7.372   0.804  19.657  0.00  0.00    +0.000 OA
ENDBRANCH  10  11
ENDBRANCH   3  10
TORSDOF 3
ENDMDL
MODEL 4
REMARK VINA RESULT:      -4.9      1.984      2.501
REMARK  Name = 
REMARK  3 active torsions:
REMARK  status: ('A' for Active; 'I' for Inactive)
REMARK    1  A    between atoms: C_5  and  C_7
REMARK    2  A    between atoms: N_9  and  C_10
REMARK    3  A    between atoms: C_10  and  C_11
REMARK                            x       y       z     vdW  Elec       q    Type
REMARK                         _______ _______ _______ _____ _____    ______ ____
ROOT
ATOM      1  C   UNL     1       7.107  -3.814  22.575  0.00  0.00    +0.000 C 
ATOM      2  O   UNL     1       7.202  -4.917  22.107  0.00  0.00    +0.000 OA
ATOM      3  N   UNL     1       6.893  -2.728  21.902  0.00  0.00    +0.000 NA
ENDROOT
BRANCH   1   8
ATOM      4  C   UNL     1       9.868  -5.166  25.577  0.00  0.00    +0.000 C 
ATOM      5  N   UNL     1       8.911  -4.071  25.491  0.00  0.00    +0.000 N 
ATOM      6  C   UNL     1       7.622  -4.343  26.022  0.00  0.00    +0.000 A 
ATOM      7  C   UNL     1       6.630  -3.987  24.940  0.00  0.00    +0.000 A 
ATOM      8  C   UNL     1       7.511  -3.499  23.877  0.00  0.00    +0.000 A 
ATOM      9  N   UNL     1       8.728  -3.807  24.072  0.00  0.00    +0.000 NA
ENDBRANCH   1   8
BRANCH   3  10
ATOM     10  C   UNL     1       7.230  -1.337  22.571  0.00  0.00    +0.000 C 
BRANCH  10  11
ATOM     11  C   UNL     1       7.892  -0.726  21.347  0.00  0.00    +0.000 C 
ATOM     12  C   UNL     1       8.379   0.626  20.837  0.00  0.00    +0.000 C 
ATOM     13  C   UNL     1       9.650   0.948  21.744  0.00  0.00    +0.000 C 
ATOM     14  C   UNL     1       9.456  -0.262  22.777  0.00  0.00    +0.000 C 
ATOM     15  O   UNL     1       9.180  -1.302  21.677  0.00  0.00    +0.000 OA
ENDBRANCH  10  11
ENDBRANCH   3  10
TORSDOF 3
ENDMDL
MODEL 5
REMARK VINA RESULT:      -4.9      2.368      2.925
REMARK  Name = 
REMARK  3 active torsions:
REMARK  status: ('A' for Active; 'I' for Inactive)
REMARK    1  A    between atoms: C_5  and  C_7
REMARK    2  A    between atoms: N_9  and  C_10
REMARK    3  A    between atoms: C_10  and  C_11
REMARK                            x       y       z     vdW  Elec       q    Type
REMARK                         _______ _______ _______ _____ _____    ______ ____
ROOT
ATOM      1  C   UNL     1       6.720  -1.775  21.787  0.00  0.00    +0.000 C 
ATOM      2  O   UNL     1       6.046  -1.977  20.812  0.00  0.00    +0.000 OA
ATOM      3  N   UNL     1       7.477  -0.741  21.976  0.00  0.00    +0.000 NA
ENDROOT
BRANCH   1   8
ATOM      4  C   UNL     1       7.086  -6.047  22.058  0.00  0.00    +0.000 C 
ATOM      5  N   UNL     1       7.275  -4.947  22.993  0.00  0.00    +0.000 N 
ATOM      6  C   UNL     1       6.143  -4.619  23.788  0.00  0.00    +0.000 A 
ATOM      7  C   UNL     1       5.916  -3.136  23.619  0.00  0.00    +0.000 A 
ATOM      8  C   UNL     1       7.019  -2.766  22.729  0.00  0.00    +0.000 A 
ATOM      9  N   UNL     1       7.565  -3.775  22.182  0.00  0.00    +0.000 NA
ENDBRANCH   1   8
BRANCH   3  10
ATOM     10  C   UNL     1       8.617  -0.819  23.065  0.00  0.00    +0.000 C 
BRANCH  10  11
ATOM     11  C   UNL     1       9.626   0.026  22.305  0.00  0.00    +0.000 C 
ATOM     12  C   UNL     1       9.914   1.487  21.980  0.00  0.00    +0.000 C 
ATOM     13  C   UNL     1      10.373   2.111  23.374  0.00  0.00    +0.000 C 
ATOM     14  C   UNL     1      10.007   0.841  24.278  0.00  0.00    +0.000 C 
ATOM     15  O   UNL     1      10.648  -0.172  23.312  0.00  0.00    +0.000 OA
ENDBRANCH  10  11
ENDBRANCH   3  10
TORSDOF 3
ENDMDL
MODEL 6
REMARK VINA RESULT:      -4.8      2.380      3.385
REMARK  Name = 
REMARK  3 active torsions:
REMARK  status: ('A' for Active; 'I' for Inactive)
REMARK    1  A    between atoms: C_5  and  C_7
REMARK    2  A    between atoms: N_9  and  C_10
REMARK    3  A    between atoms: C_10  and  C_11
REMARK                            x       y       z     vdW  Elec       q    Type
REMARK                         _______ _______ _______ _____ _____    ______ ____
ROOT
ATOM      1  C   UNL     1       7.026  -1.393  21.449  0.00  0.00    +0.000 C 
ATOM      2  O   UNL     1       6.072  -1.995  21.036  0.00  0.00    +0.000 OA
ATOM      3  N   UNL     1       7.634  -0.431  20.831  0.00  0.00    +0.000 NA
ENDROOT
BRANCH   1   8
ATOM      4  C   UNL     1       7.744  -4.965  23.727  0.00  0.00    +0.000 C 
ATOM      5  N   UNL     1       8.293  -3.616  23.747  0.00  0.00    +0.000 N 
ATOM      6  C   UNL     1       7.668  -2.716  24.653  0.00  0.00    +0.000 A 
ATOM      7  C   UNL     1       7.295  -1.492  23.852  0.00  0.00    +0.000 A 
ATOM      8  C   UNL     1       7.805  -1.839  22.523  0.00  0.00    +0.000 A 
ATOM      9  N   UNL     1       8.080  -3.075  22.414  0.00  0.00    +0.000 NA
ENDBRANCH   1   8
BRANCH   3  10
ATOM     10  C   UNL     1       9.100  -0.045  21.273  0.00  0.00    +0.000 C 
BRANCH  10  11
ATOM     11  C   UNL     1       8.792   1.404  21.610  0.00  0.00    +0.000 C 
ATOM     12  C   UNL     1       8.165   2.234  22.724  0.00  0.00    +0.000 C 
ATOM     13  C   UNL     1       9.213   2.131  23.921  0.00  0.00    +0.000 C 
ATOM     14  C   UNL     1      10.150   1.015  23.255  0.00  0.00    +0.000 C 
ATOM     15  O   UNL     1      10.183   1.705  21.880  0.00  0.00    +0.000 OA
ENDBRANCH  10  11
ENDBRANCH   3  10
TORSDOF 3
ENDMDL
MODEL 7
REMARK VINA RESULT:      -4.8      2.514      5.715
REMARK  Name = 
REMARK  3 active torsions:
REMARK  status: ('A' for Active; 'I' for Inactive)
REMARK    1  A    between atoms: C_5  and  C_7
REMARK    2  A    between atoms: N_9  and  C_10
REMARK    3  A    between atoms: C_10  and  C_11
REMARK                            x       y       z     vdW  Elec       q    Type
REMARK                         _______ _______ _______ _____ _____    ______ ____
ROOT
ATOM      1  C   UNL     1       7.749  -1.512  21.897  0.00  0.00    +0.000 C 
ATOM      2  O   UNL     1       6.812  -1.279  21.182  0.00  0.00    +0.000 OA
ATOM      3  N   UNL     1       7.988  -2.644  22.480  0.00  0.00    +0.000 NA
ENDROOT
BRANCH   1   8
ATOM      4  C   UNL     1       7.827   2.757  22.379  0.00  0.00    +0.000 C 
ATOM      5  N   UNL     1       8.701   1.669  22.793  0.00  0.00    +0.000 N 
ATOM      6  C   UNL     1       9.772   1.375  21.906  0.00  0.00    +0.000 A 
ATOM      7  C   UNL     1       9.699  -0.107  21.623  0.00  0.00    +0.000 A 
ATOM      8  C   UNL     1       8.559  -0.511  22.448  0.00  0.00    +0.000 A 
ATOM      9  N   UNL     1       7.867   0.479  22.844  0.00  0.00    +0.000 NA
ENDBRANCH   1   8
BRANCH   3  10
ATOM     10  C   UNL     1       8.976  -2.677  23.711  0.00  0.00    +0.000 C 
BRANCH  10  11
ATOM     11  C   UNL     1       8.606  -4.075  24.178  0.00  0.00    +0.000 C 
ATOM     12  C   UNL     1       9.111  -5.160  25.122  0.00  0.00    +0.000 C 
ATOM     13  C   UNL     1       8.860  -4.558  26.576  0.00  0.00    +0.000 C 
ATOM     14  C   UNL     1       8.449  -3.084  26.101  0.00  0.00    +0.000 C 
ATOM     15  O   UNL     1       7.510  -3.584  24.989  0.00  0.00    +0.000 OA
ENDBRANCH  10  11
ENDBRANCH   3  10
TORSDOF 3
ENDMDL
MODEL 8
REMARK VINA RESULT:      -4.8      3.148      5.882
REMARK  Name = 
REMARK  3 active torsions:
REMARK  status: ('A' for Active; 'I' for Inactive)
REMARK    1  A    between atoms: C_5  and  C_7
REMARK    2  A    between atoms: N_9  and  C_10
REMARK    3  A    between atoms: C_10  and  C_11
REMARK                            x       y       z     vdW  Elec       q    Type
REMARK                         _______ _______ _______ _____ _____    ______ ____
ROOT
ATOM      1  C   UNL     1       7.451  -0.721  21.370  0.00  0.00    +0.000 C 
ATOM      2  O   UNL     1       7.405   0.318  20.767  0.00  0.00    +0.000 OA
ATOM      3  N   UNL     1       6.576  -1.673  21.296  0.00  0.00    +0.000 NA
ENDROOT
BRANCH   1   8
ATOM      4  C   UNL     1       9.586   1.515  24.353  0.00  0.00    +0.000 C 
ATOM      5  N   UNL     1       9.412   0.096  24.073  0.00  0.00    +0.000 N 
ATOM      6  C   UNL     1      10.418  -0.494  23.261  0.00  0.00    +0.000 A 
ATOM      7  C   UNL     1       9.699  -1.192  22.131  0.00  0.00    +0.000 A 
ATOM      8  C   UNL     1       8.297  -0.933  22.465  0.00  0.00    +0.000 A 
ATOM      9  N   UNL     1       8.163  -0.019  23.337  0.00  0.00    +0.000 NA
ENDBRANCH   1   8
BRANCH   3  10
ATOM     10  C   UNL     1       6.525  -2.756  22.445  0.00  0.00    +0.000 C 
BRANCH  10  11
ATOM     11  C   UNL     1       6.049  -3.901  21.567  0.00  0.00    +0.000 C 
ATOM     12  C   UNL     1       6.363  -5.367  21.291  0.00  0.00    +0.000 C 
ATOM     13  C   UNL     1       5.888  -6.121  22.613  0.00  0.00    +0.000 C 
ATOM     14  C   UNL     1       5.598  -4.808  23.485  0.00  0.00    +0.000 C 
ATOM     15  O   UNL     1       4.846  -4.087  22.352  0.00  0.00    +0.000 OA
ENDBRANCH  10  11
ENDBRANCH   3  10
TORSDOF 3
ENDMDL
MODEL 9
REMARK VINA RESULT:      -4.8      1.626      2.150
REMARK  Name = 
REMARK  3 active torsions:
REMARK  status: ('A' for Active; 'I' for Inactive)
REMARK    1  A    between atoms: C_5  and  C_7
REMARK    2  A    between atoms: N_9  and  C_10
REMARK    3  A    between atoms: C_10  and  C_11
REMARK                            x       y       z     vdW  Elec       q    Type
REMARK                         _______ _______ _______ _____ _____    ______ ____
ROOT
ATOM      1  C   UNL     1       8.278  -4.592  24.148  0.00  0.00    +0.000 C 
ATOM      2  O   UNL     1       8.108  -5.330  25.081  0.00  0.00    +0.000 OA
ATOM      3  N   UNL     1       9.135  -3.621  24.104  0.00  0.00    +0.000 NA
ENDROOT
BRANCH   1   8
ATOM      4  C   UNL     1       4.088  -5.089  23.337  0.00  0.00    +0.000 C 
ATOM      5  N   UNL     1       5.235  -4.663  22.548  0.00  0.00    +0.000 N 
ATOM      6  C   UNL     1       5.882  -5.689  21.807  0.00  0.00    +0.000 A 
ATOM      7  C   UNL     1       7.347  -5.616  22.164  0.00  0.00    +0.000 A 
ATOM      8  C   UNL     1       7.373  -4.479  23.087  0.00  0.00    +0.000 A 
ATOM      9  N   UNL     1       6.214  -4.159  23.499  0.00  0.00    +0.000 NA
ENDBRANCH   1   8
BRANCH   3  10
ATOM     10  C   UNL     1       8.946  -2.484  23.025  0.00  0.00    +0.000 C 
BRANCH  10  11
ATOM     11  C   UNL     1       8.926  -1.327  24.010  0.00  0.00    +0.000 C 
ATOM     12  C   UNL     1       9.893  -0.438  24.784  0.00  0.00    +0.000 C 
ATOM     13  C   UNL     1      10.569   0.469  23.661  0.00  0.00    +0.000 C 
ATOM     14  C   UNL     1       9.961  -0.308  22.399  0.00  0.00    +0.000 C 
ATOM     15  O   UNL     1       8.540  -0.378  22.987  0.00  0.00    +0.000 OA
ENDBRANCH  10  11
ENDBRANCH   3  10
TORSDOF 3
ENDMDL
