MODEL 1
REMARK VINA RESULT:      -6.5      0.000      0.000
REMARK  Name = 
REMARK  2 active torsions:
REMARK  status: ('A' for Active; 'I' for Inactive)
REMARK    1  A    between atoms: C_8  and  C_10
REMARK    2  A    between atoms: C_10  and  C_11
REMARK                            x       y       z     vdW  Elec       q    Type
REMARK                         _______ _______ _______ _____ _____    ______ ____
ROOT
ATOM      1  C   UNL     1       8.299  -2.523  22.563  0.00  0.00    +0.000 C 
ENDROOT
BRANCH   1   9
ATOM      2  C   UNL     1       8.951   2.557  24.639  0.00  0.00    +0.000 C 
ATOM      3  N   UNL     1       9.881   2.239  23.599  0.00  0.00    +0.000 NA
ATOM      4  C   UNL     1       9.178   1.737  22.471  0.00  0.00    +0.000 C 
ATOM      5  C   UNL     1       9.777   0.406  22.016  0.00  0.00    +0.000 C 
ATOM      6  N   UNL     1       9.592  -0.543  23.137  0.00  0.00    +0.000 N 
ATOM      7  C   UNL     1      10.146  -0.041  24.414  0.00  0.00    +0.000 C 
ATOM      8  C   UNL     1      10.827   1.294  24.081  0.00  0.00    +0.000 C 
ATOM      9  C   UNL     1       9.633  -1.860  22.888  0.00  0.00    +0.000 C 
ATOM     10  O   UNL     1      10.631  -2.514  23.094  0.00  0.00    +0.000 OA
ENDBRANCH   1   9
BRANCH   1  11
ATOM     11  C   UNL     1       8.010  -3.518  23.673  0.00  0.00    +0.000 A 
ATOM     12  C   UNL     1       7.119  -3.123  24.786  0.00  0.00    +0.000 A 
ATOM     13  N   UNL     1       6.175  -4.294  25.012  0.00  0.00    +0.000 NA
ATOM     14  C   UNL     1       6.417  -5.238  24.153  0.00  0.00    +0.000 A 
ATOM     15  N   UNL     1       5.364  -5.715  23.887  0.00  0.00    +0.000 NA
ATOM     16  C   UNL     1       4.773  -5.798  22.721  0.00  0.00    +0.000 A 
ATOM     17  C   UNL     1       5.946  -5.838  21.744  0.00  0.00    +0.000 A 
ATOM     18  C   UNL     1       7.114  -5.067  21.954  0.00  0.00    +0.000 A 
ATOM     19  C   UNL     1       7.680  -4.905  23.314  0.00  0.00    +0.000 A 
ENDBRANCH   1  11
TORSDOF 2
ENDMDL
MODEL 2
REMARK VINA RESULT:      -6.4      1.707      2.113
REMARK  Name = 
REMARK  2 active torsions:
REMARK  status: ('A' for Active; 'I' for Inactive)
REMARK    1  A    between atoms: C_8  and  C_10
REMARK    2  A    between atoms: C_10  and  C_11
REMARK                            x       y       z     vdW  Elec       q    Type
REMARK                         _______ _______ _______ _____ _____    ______ ____
ROOT
ATOM      1  C   UNL     1       8.042  -2.692  23.651  0.00  0.00    +0.000 C 
ENDROOT
BRANCH   1   9
ATOM      2  C   UNL     1       8.374   2.759  22.797  0.00  0.00    +0.000 C 
ATOM      3  N   UNL     1       8.840   1.975  21.693  0.00  0.00    +0.000 NA
ATOM      4  C   UNL     1       7.863   1.001  21.357  0.00  0.00    +0.000 C 
ATOM      5  C   UNL     1       8.495  -0.390  21.292  0.00  0.00    +0.000 C 
ATOM      6  N   UNL     1       8.996  -0.687  22.653  0.00  0.00    +0.000 N 
ATOM      7  C   UNL     1       9.902   0.360  23.175  0.00  0.00    +0.000 C 
ATOM      8  C   UNL     1      10.080   1.369  22.031  0.00  0.00    +0.000 C 
ATOM      9  C   UNL     1       9.214  -1.963  23.002  0.00  0.00    +0.000 C 
ATOM     10  O   UNL     1      10.325  -2.446  22.978  0.00  0.00    +0.000 OA
ENDBRANCH   1   9
BRANCH   1  11
ATOM     11  C   UNL     1       8.626  -3.712  24.613  0.00  0.00    +0.000 A 
ATOM     12  C   UNL     1       8.870  -3.322  26.020  0.00  0.00    +0.000 A 
ATOM     13  N   UNL     1       8.350  -4.468  26.875  0.00  0.00    +0.000 NA
ATOM     14  C   UNL     1       7.834  -5.392  26.122  0.00  0.00    +0.000 A 
ATOM     15  N   UNL     1       6.909  -5.825  26.725  0.00  0.00    +0.000 NA
ATOM     16  C   UNL     1       5.646  -5.853  26.380  0.00  0.00    +0.000 A 
ATOM     17  C   UNL     1       5.708  -5.901  24.855  0.00  0.00    +0.000 A 
ATOM     18  C   UNL     1       6.682  -5.175  24.128  0.00  0.00    +0.000 A 
ATOM     19  C   UNL     1       8.076  -5.075  24.622  0.00  0.00    +0.000 A 
ENDBRANCH   1  11
TORSDOF 2
ENDMDL
MODEL 3
REMARK VINA RESULT:      -6.4      1.719      2.140
REMARK  Name = 
REMARK  2 active torsions:
REMARK  status: ('A' for Active; 'I' for Inactive)
REMARK    1  A    between atoms: C_8  and  C_10
REMARK    2  A    between atoms: C_10  and  C_11
REMARK                            x       y       z     vdW  Elec       q    Type
REMARK                         _______ _______ _______ _____ _____    ______ ____
ROOT
ATOM      1  C   UNL     1       8.874  -2.318  23.181  0.00  0.00    +0.000 C 
ENDROOT
BRANCH   1   9
ATOM      2  C   UNL     1       8.004   3.079  22.367  0.00  0.00    +0.000 C 
ATOM      3  N   UNL     1       9.231   2.792  23.045  0.00  0.00    +0.000 NA
ATOM      4  C   UNL     1       9.955   1.808  22.320  0.00  0.00    +0.000 C 
ATOM      5  C   UNL     1      10.362   0.657  23.240  0.00  0.00    +0.000 C 
ATOM      6  N   UNL     1       9.105   0.043  23.726  0.00  0.00    +0.000 N 
ATOM      7  C   UNL     1       8.193   1.021  24.357  0.00  0.00    +0.000 C 
ATOM      8  C   UNL     1       8.951   2.356  24.369  0.00  0.00    +0.000 C 
ATOM      9  C   UNL     1       9.135  -1.212  24.198  0.00  0.00    +0.000 C 
ATOM     10  O   UNL     1       9.176  -1.442  25.386  0.00  0.00    +0.000 OA
ENDBRANCH   1   9
BRANCH   1  11
ATOM     11  C   UNL     1       7.370  -2.414  22.998  0.00  0.00    +0.000 A 
ATOM     12  C   UNL     1       6.748  -1.817  21.795  0.00  0.00    +0.000 A 
ATOM     13  N   UNL     1       5.754  -2.845  21.276  0.00  0.00    +0.000 NA
ATOM     14  C   UNL     1       5.788  -3.915  22.013  0.00  0.00    +0.000 A 
ATOM     15  N   UNL     1       5.615  -4.826  21.273  0.00  0.00    +0.000 NA
ATOM     16  C   UNL     1       6.401  -5.844  21.029  0.00  0.00    +0.000 A 
ATOM     17  C   UNL     1       7.172  -6.004  22.339  0.00  0.00    +0.000 A 
ATOM     18  C   UNL     1       7.587  -4.884  23.097  0.00  0.00    +0.000 A 
ATOM     19  C   UNL     1       6.705  -3.701  23.246  0.00  0.00    +0.000 A 
ENDBRANCH   1  11
TORSDOF 2
ENDMDL
MODEL 4
REMARK VINA RESULT:      -6.3      2.269      6.457
REMARK  Name = 
REMARK  2 active torsions:
REMARK  status: ('A' for Active; 'I' for Inactive)
REMARK    1  A    between atoms: C_8  and  C_10
REMARK    2  A    between atoms: C_10  and  C_11
REMARK                            x       y       z     vdW  Elec       q    Type
REMARK                         _______ _______ _______ _____ _____    ______ ____
ROOT
ATOM      1  C   UNL     1       6.201  -1.939  23.114  0.00  0.00    +0.000 C 
ENDROOT
BRANCH   1   9
ATOM      2  C   UNL     1       6.233  -5.204  27.573  0.00  0.00    +0.000 C 
ATOM      3  N   UNL     1       6.652  -5.865  26.374  0.00  0.00    +0.000 NA
ATOM      4  C   UNL     1       7.657  -5.093  25.733  0.00  0.00    +0.000 C 
ATOM      5  C   UNL     1       7.298  -4.860  24.265  0.00  0.00    +0.000 C 
ATOM      6  N   UNL     1       6.040  -4.080  24.259  0.00  0.00    +0.000 N 
ATOM      7  C   UNL     1       4.963  -4.719  25.046  0.00  0.00    +0.000 C 
ATOM      8  C   UNL     1       5.531  -6.063  25.524  0.00  0.00    +0.000 C 
ATOM      9  C   UNL     1       5.713  -3.383  23.162  0.00  0.00    +0.000 C 
ATOM     10  O   UNL     1       4.921  -3.811  22.351  0.00  0.00    +0.000 OA
ENDBRANCH   1   9
BRANCH   1  11
ATOM     11  C   UNL     1       7.201  -1.841  21.975  0.00  0.00    +0.000 A 
ATOM     12  C   UNL     1       6.994  -0.828  20.916  0.00  0.00    +0.000 A 
ATOM     13  N   UNL     1       8.349  -0.178  20.679  0.00  0.00    +0.000 NA
ATOM     14  C   UNL     1       9.235  -0.680  21.487  0.00  0.00    +0.000 A 
ATOM     15  N   UNL     1       9.958   0.216  21.774  0.00  0.00    +0.000 NA
ATOM     16  C   UNL     1      10.217   0.712  22.958  0.00  0.00    +0.000 A 
ATOM     17  C   UNL     1      10.007  -0.483  23.885  0.00  0.00    +0.000 A 
ATOM     18  C   UNL     1       8.973  -1.423  23.661  0.00  0.00    +0.000 A 
ATOM     19  C   UNL     1       8.637  -1.867  22.287  0.00  0.00    +0.000 A 
ENDBRANCH   1  11
TORSDOF 2
ENDMDL
MODEL 5
REMARK VINA RESULT:      -6.2      1.390      6.581
REMARK  Name = 
REMARK  2 active torsions:
REMARK  status: ('A' for Active; 'I' for Inactive)
REMARK    1  A    between atoms: C_8  and  C_10
REMARK    2  A    between atoms: C_10  and  C_11
REMARK                            x       y       z     vdW  Elec       q    Type
REMARK                         _______ _______ _______ _____ _____    ______ ____
ROOT
ATOM      1  C   UNL     1       9.014  -2.025  24.656  0.00  0.00    +0.000 C 
ENDROOT
BRANCH   1   9
ATOM      2  C   UNL     1       4.205  -4.417  23.354  0.00  0.00    +0.000 C 
ATOM      3  N   UNL     1       4.856  -5.014  24.481  0.00  0.00    +0.000 NA
ATOM      4  C   UNL     1       5.213  -4.003  25.412  0.00  0.00    +0.000 C 
ATOM      5  C   UNL     1       6.691  -4.120  25.788  0.00  0.00    +0.000 C 
ATOM      6  N   UNL     1       7.459  -3.894  24.543  0.00  0.00    +0.000 N 
ATOM      7  C   UNL     1       7.048  -4.792  23.442  0.00  0.00    +0.000 C 
ATOM      8  C   UNL     1       5.997  -5.738  24.040  0.00  0.00    +0.000 C 
ATOM      9  C   UNL     1       8.746  -3.526  24.631  0.00  0.00    +0.000 C 
ATOM     10  O   UNL     1       9.645  -4.328  24.505  0.00  0.00    +0.000 OA
ENDBRANCH   1   9
BRANCH   1  11
ATOM     11  C   UNL     1       9.617  -1.655  23.312  0.00  0.00    +0.000 A 
ATOM     12  C   UNL     1       8.742  -1.587  22.121  0.00  0.00    +0.000 A 
ATOM     13  N   UNL     1       9.121  -0.310  21.387  0.00  0.00    +0.000 NA
ATOM     14  C   UNL     1      10.047   0.325  22.040  0.00  0.00    +0.000 A 
ATOM     15  N   UNL     1       9.815   1.479  21.895  0.00  0.00    +0.000 NA
ATOM     16  C   UNL     1       9.562   2.386  22.806  0.00  0.00    +0.000 A 
ATOM     17  C   UNL     1      10.314   1.862  24.028  0.00  0.00    +0.000 A 
ATOM     18  C   UNL     1      10.379   0.480  24.323  0.00  0.00    +0.000 A 
ATOM     19  C   UNL     1      10.548  -0.519  23.242  0.00  0.00    +0.000 A 
ENDBRANCH   1  11
TORSDOF 2
ENDMDL
MODEL 6
REMARK VINA RESULT:      -6.1      2.407      3.223
REMARK  Name = 
REMARK  2 active torsions:
REMARK  status: ('A' for Active; 'I' for Inactive)
REMARK    1  A    between atoms: C_8  and  C_10
REMARK    2  A    between atoms: C_10  and  C_11
REMARK                            x       y       z     vdW  Elec       q    Type
REMARK                         _______ _______ _______ _____ _____    ______ ____
ROOT
ATOM      1  C   UNL     1       6.514  -2.882  24.228  0.00  0.00    +0.000 C 
ENDROOT
BRANCH   1   9
ATOM      2  C   UNL     1      10.221   0.938  22.740  0.00  0.00    +0.000 C 
ATOM      3  N   UNL     1       9.046   0.929  21.921  0.00  0.00    +0.000 NA
ATOM      4  C   UNL     1       7.892   0.971  22.748  0.00  0.00    +0.000 C 
ATOM      5  C   UNL     1       6.923  -0.151  22.372  0.00  0.00    +0.000 C 
ATOM      6  N   UNL     1       7.634  -1.423  22.634  0.00  0.00    +0.000 N 
ATOM      7  C   UNL     1       8.942  -1.504  21.946  0.00  0.00    +0.000 C 
ATOM      8  C   UNL     1       9.050  -0.229  21.098  0.00  0.00    +0.000 C 
ATOM      9  C   UNL     1       6.919  -2.546  22.796  0.00  0.00    +0.000 C 
ATOM     10  O   UNL     1       6.768  -3.339  21.894  0.00  0.00    +0.000 OA
ENDBRANCH   1   9
BRANCH   1  11
ATOM     11  C   UNL     1       7.602  -3.769  24.806  0.00  0.00    +0.000 A 
ATOM     12  C   UNL     1       8.503  -3.224  25.846  0.00  0.00    +0.000 A 
ATOM     13  N   UNL     1       8.610  -4.296  26.920  0.00  0.00    +0.000 NA
ATOM     14  C   UNL     1       7.866  -5.316  26.612  0.00  0.00    +0.000 A 
ATOM     15  N   UNL     1       7.432  -5.724  27.638  0.00  0.00    +0.000 NA
ATOM     16  C   UNL     1       6.182  -5.842  28.010  0.00  0.00    +0.000 A 
ATOM     17  C   UNL     1       5.448  -6.046  26.686  0.00  0.00    +0.000 A 
ATOM     18  C   UNL     1       5.833  -5.359  25.511  0.00  0.00    +0.000 A 
ATOM     19  C   UNL     1       7.264  -5.146  25.192  0.00  0.00    +0.000 A 
ENDBRANCH   1  11
TORSDOF 2
ENDMDL
MODEL 7
REMARK VINA RESULT:      -6.0      2.472      5.850
REMARK  Name = 
REMARK  2 active torsions:
REMARK  status: ('A' for Active; 'I' for Inactive)
REMARK    1  A    between atoms: C_8  and  C_10
REMARK    2  A    between atoms: C_10  and  C_11
REMARK                            x       y       z     vdW  Elec       q    Type
REMARK                         _______ _______ _______ _____ _____    ______ ____
ROOT
ATOM      1  C   UNL     1       8.453  -3.247  23.062  0.00  0.00    +0.000 C 
ENDROOT
BRANCH   1   9
ATOM      2  C   UNL     1       4.976  -5.199  26.888  0.00  0.00    +0.000 C 
ATOM      3  N   UNL     1       6.045  -4.416  27.430  0.00  0.00    +0.000 NA
ATOM      4  C   UNL     1       6.126  -3.179  26.737  0.00  0.00    +0.000 C 
ATOM      5  C   UNL     1       7.553  -2.932  26.249  0.00  0.00    +0.000 C 
ATOM      6  N   UNL     1       7.864  -4.019  25.293  0.00  0.00    +0.000 N 
ATOM      7  C   UNL     1       7.651  -5.367  25.865  0.00  0.00    +0.000 C 
ATOM      8  C   UNL     1       7.262  -5.144  27.333  0.00  0.00    +0.000 C 
ATOM      9  C   UNL     1       8.854  -3.842  24.407  0.00  0.00    +0.000 C 
ATOM     10  O   UNL     1       9.960  -4.301  24.591  0.00  0.00    +0.000 OA
ENDBRANCH   1   9
BRANCH   1  11
ATOM     11  C   UNL     1       8.802  -1.769  23.102  0.00  0.00    +0.000 A 
ATOM     12  C   UNL     1      10.136  -1.328  22.637  0.00  0.00    +0.000 A 
ATOM     13  N   UNL     1       9.899  -0.105  21.764  0.00  0.00    +0.000 NA
ATOM     14  C   UNL     1       8.626   0.142  21.674  0.00  0.00    +0.000 A 
ATOM     15  N   UNL     1       8.450   0.541  20.571  0.00  0.00    +0.000 NA
ATOM     16  C   UNL     1       7.684   0.044  19.632  0.00  0.00    +0.000 A 
ATOM     17  C   UNL     1       6.579  -0.653  20.424  0.00  0.00    +0.000 A 
ATOM     18  C   UNL     1       6.852  -1.340  21.630  0.00  0.00    +0.000 A 
ATOM     19  C   UNL     1       7.819  -0.794  22.612  0.00  0.00    +0.000 A 
ENDBRANCH   1  11
TORSDOF 2
ENDMDL
MODEL 8
REMARK VINA RESULT:      -6.0      2.078      2.728
REMARK  Name = 
REMARK  2 active torsions:
REMARK  status: ('A' for Active; 'I' for Inactive)
REMARK    1  A    between atoms: C_8  and  C_10
REMARK    2  A    between atoms: C_10  and  C_11
REMARK                            x       y       z     vdW  Elec       q    Type
REMARK                         _______ _______ _______ _____ _____    ______ ____
ROOT
ATOM      1  C   UNL     1       8.051  -3.097  25.397  0.00  0.00    +0.000 C 
ENDROOT
BRANCH   1   9
ATOM      2  C   UNL     1       8.362   1.286  22.045  0.00  0.00    +0.000 C 
ATOM      3  N   UNL     1       8.487   0.034  21.364  0.00  0.00    +0.000 NA
ATOM      4  C   UNL     1       7.417  -0.821  21.743  0.00  0.00    +0.000 C 
ATOM      5  C   UNL     1       7.952  -2.178  22.201  0.00  0.00    +0.000 C 
ATOM      6  N   UNL     1       8.784  -1.918  23.398  0.00  0.00    +0.000 N 
ATOM      7  C   UNL     1       9.838  -0.907  23.159  0.00  0.00    +0.000 C 
ATOM      8  C   UNL     1       9.746  -0.549  21.669  0.00  0.00    +0.000 C 
ATOM      9  C   UNL     1       9.036  -2.926  24.246  0.00  0.00    +0.000 C 
ATOM     10  O   UNL     1      10.080  -3.539  24.210  0.00  0.00    +0.000 OA
ENDBRANCH   1   9
BRANCH   1  11
ATOM     11  C   UNL     1       7.677  -4.568  25.453  0.00  0.00    +0.000 A 
ATOM     12  C   UNL     1       7.705  -5.273  26.754  0.00  0.00    +0.000 A 
ATOM     13  N   UNL     1       6.425  -6.093  26.821  0.00  0.00    +0.000 NA
ATOM     14  C   UNL     1       5.708  -5.894  25.756  0.00  0.00    +0.000 A 
ATOM     15  N   UNL     1       4.578  -5.921  26.114  0.00  0.00    +0.000 NA
ATOM     16  C   UNL     1       3.666  -4.986  26.023  0.00  0.00    +0.000 A 
ATOM     17  C   UNL     1       4.101  -4.203  24.786  0.00  0.00    +0.000 A 
ATOM     18  C   UNL     1       5.466  -3.969  24.497  0.00  0.00    +0.000 A 
ATOM     19  C   UNL     1       6.481  -5.024  24.729  0.00  0.00    +0.000 A 
ENDBRANCH   1  11
TORSDOF 2
ENDMDL
MODEL 9
REMARK VINA RESULT:      -6.0      1.930      6.831
REMARK  Name = 
REMARK  2 active torsions:
REMARK  status: ('A' for Active; 'I' for Inactive)
REMARK    1  A    between atoms: C_8  and  C_10
REMARK    2  A    between atoms: C_10  and  C_11
REMARK                            x       y       z     vdW  Elec       q    Type
REMARK                         _______ _______ _______ _____ _____    ______ ____
ROOT
ATOM      1  C   UNL     1       6.806  -0.699  22.759  0.00  0.00    +0.000 C 
ENDROOT
BRANCH   1   9
ATOM      2  C   UNL     1       5.305  -5.559  24.921  0.00  0.00    +0.000 C 
ATOM      3  N   UNL     1       6.207  -5.676  23.816  0.00  0.00    +0.000 NA
ATOM      4  C   UNL     1       7.327  -4.828  24.025  0.00  0.00    +0.000 C 
ATOM      5  C   UNL     1       7.560  -3.938  22.804  0.00  0.00    +0.000 C 
ATOM      6  N   UNL     1       6.356  -3.089  22.668  0.00  0.00    +0.000 N 
ATOM      7  C   UNL     1       5.102  -3.872  22.609  0.00  0.00    +0.000 C 
ATOM      8  C   UNL     1       5.527  -5.347  22.612  0.00  0.00    +0.000 C 
ATOM      9  C   UNL     1       6.440  -1.949  21.967  0.00  0.00    +0.000 C 
ATOM     10  O   UNL     1       6.063  -1.882  20.818  0.00  0.00    +0.000 OA
ENDBRANCH   1   9
BRANCH   1  11
ATOM     11  C   UNL     1       7.643   0.182  21.847  0.00  0.00    +0.000 A 
ATOM     12  C   UNL     1       7.271   1.603  21.673  0.00  0.00    +0.000 A 
ATOM     13  N   UNL     1       8.565   2.397  21.774  0.00  0.00    +0.000 NA
ATOM     14  C   UNL     1       9.563   1.599  22.012  0.00  0.00    +0.000 A 
ATOM     15  N   UNL     1      10.294   2.197  22.730  0.00  0.00    +0.000 NA
ATOM     16  C   UNL     1      10.695   1.884  23.936  0.00  0.00    +0.000 A 
ATOM     17  C   UNL     1      10.642   0.358  23.930  0.00  0.00    +0.000 A 
ATOM     18  C   UNL     1       9.612  -0.346  23.262  0.00  0.00    +0.000 A 
ATOM     19  C   UNL     1       9.107   0.117  21.947  0.00  0.00    +0.000 A 
ENDBRANCH   1  11
TORSDOF 2
ENDMDL
