MODEL 1
REMARK VINA RESULT:      -5.7      0.000      0.000
REMARK  Name = 
REMARK  3 active torsions:
REMARK  status: ('A' for Active; 'I' for Inactive)
REMARK    1  A    between atoms: C_2  and  C_3
REMARK    2  A    between atoms: C_3  and  C_4
REMARK    3  A    between atoms: N_10  and  C_11
REMARK                            x       y       z     vdW  Elec       q    Type
REMARK                         _______ _______ _______ _____ _____    ______ ____
ROOT
ATOM      1  O   UNL     1      10.023  -3.367  24.150  0.00  0.00    +0.000 OA
ATOM      2  C   UNL     1       9.063  -2.749  23.735  0.00  0.00    +0.000 C 
ATOM      3  N   UNL     1       8.117  -3.337  22.976  0.00  0.00    +0.000 NA
ENDROOT
BRANCH   3   4
ATOM      4  C   UNL     1       6.987  -3.523  23.688  0.00  0.00    +0.000 A 
ATOM      5  C   UNL     1       7.022  -5.065  24.276  0.00  0.00    +0.000 A 
ATOM      6  C   UNL     1       5.771  -5.793  23.832  0.00  0.00    +0.000 A 
ATOM      7  C   UNL     1       4.636  -5.401  22.944  0.00  0.00    +0.000 A 
ATOM      8  N   UNL     1       4.684  -4.084  22.457  0.00  0.00    +0.000 NA
ATOM      9  C   UNL     1       5.726  -3.399  22.865  0.00  0.00    +0.000 A 
ENDBRANCH   3   4
BRANCH   2  10
ATOM     10  C   UNL     1       8.738  -1.364  24.246  0.00  0.00    +0.000 C 
BRANCH  10  11
ATOM     11  C   UNL     1       9.832  -0.421  23.771  0.00  0.00    +0.000 C 
ATOM     12  C   UNL     1       9.594   0.977  24.326  0.00  0.00    +0.000 C 
ATOM     13  C   UNL     1      10.613   1.941  23.737  0.00  0.00    +0.000 C 
ATOM     14  C   UNL     1      10.383   2.058  22.235  0.00  0.00    +0.000 C 
ATOM     15  C   UNL     1       9.356   1.017  21.801  0.00  0.00    +0.000 C 
ATOM     16  C   UNL     1       9.821  -0.364  22.247  0.00  0.00    +0.000 C 
ENDBRANCH  10  11
ENDBRANCH   2  10
TORSDOF 3
ENDMDL
MODEL 2
REMARK VINA RESULT:      -5.6      3.348      4.365
REMARK  Name = 
REMARK  3 active torsions:
REMARK  status: ('A' for Active; 'I' for Inactive)
REMARK    1  A    between atoms: C_2  and  C_3
REMARK    2  A    between atoms: C_3  and  C_4
REMARK    3  A    between atoms: N_10  and  C_11
REMARK                            x       y       z     vdW  Elec       q    Type
REMARK                         _______ _______ _______ _____ _____    ______ ____
ROOT
ATOM      1  O   UNL     1       9.870  -0.545  23.214  0.00  0.00    +0.000 OA
ATOM      2  C   UNL     1       9.749   0.022  22.147  0.00  0.00    +0.000 C 
ATOM      3  N   UNL     1       9.152  -0.571  21.094  0.00  0.00    +0.000 NA
ENDROOT
BRANCH   3   4
ATOM      4  C   UNL     1       7.930  -0.041  20.882  0.00  0.00    +0.000 A 
ATOM      5  C   UNL     1       6.819  -1.213  21.224  0.00  0.00    +0.000 A 
ATOM      6  C   UNL     1       5.930  -1.419  20.016  0.00  0.00    +0.000 A 
ATOM      7  C   UNL     1       5.946  -0.842  18.639  0.00  0.00    +0.000 A 
ATOM      8  N   UNL     1       6.935   0.129  18.409  0.00  0.00    +0.000 NA
ATOM      9  C   UNL     1       7.694   0.379  19.450  0.00  0.00    +0.000 A 
ENDBRANCH   3   4
BRANCH   2  10
ATOM     10  C   UNL     1      10.027   1.501  22.005  0.00  0.00    +0.000 C 
BRANCH  10  11
ATOM     11  C   UNL     1       9.746   2.161  23.347  0.00  0.00    +0.000 C 
ATOM     12  C   UNL     1       8.394   2.860  23.312  0.00  0.00    +0.000 C 
ATOM     13  C   UNL     1       8.183   3.629  24.607  0.00  0.00    +0.000 C 
ATOM     14  C   UNL     1       9.213   4.749  24.699  0.00  0.00    +0.000 C 
ATOM     15  C   UNL     1      10.232   4.587  23.576  0.00  0.00    +0.000 C 
ATOM     16  C   UNL     1      10.834   3.189  23.640  0.00  0.00    +0.000 C 
ENDBRANCH  10  11
ENDBRANCH   2  10
TORSDOF 3
ENDMDL
MODEL 3
REMARK VINA RESULT:      -5.6      2.005      6.056
REMARK  Name = 
REMARK  3 active torsions:
REMARK  status: ('A' for Active; 'I' for Inactive)
REMARK    1  A    between atoms: C_2  and  C_3
REMARK    2  A    between atoms: C_3  and  C_4
REMARK    3  A    between atoms: N_10  and  C_11
REMARK                            x       y       z     vdW  Elec       q    Type
REMARK                         _______ _______ _______ _____ _____    ______ ____
ROOT
ATOM      1  O   UNL     1      10.285  -3.171  23.899  0.00  0.00    +0.000 OA
ATOM      2  C   UNL     1       9.382  -2.438  24.252  0.00  0.00    +0.000 C 
ATOM      3  N   UNL     1       9.505  -1.097  24.216  0.00  0.00    +0.000 NA
ENDROOT
BRANCH   3   4
ATOM      4  C   UNL     1       8.779  -0.582  23.202  0.00  0.00    +0.000 A 
ATOM      5  C   UNL     1       9.840  -0.099  22.033  0.00  0.00    +0.000 A 
ATOM      6  C   UNL     1       9.607   1.366  21.728  0.00  0.00    +0.000 A 
ATOM      7  C   UNL     1       8.701   2.391  22.326  0.00  0.00    +0.000 A 
ATOM      8  N   UNL     1       7.845   1.917  23.335  0.00  0.00    +0.000 NA
ATOM      9  C   UNL     1       7.976   0.637  23.592  0.00  0.00    +0.000 A 
ENDBRANCH   3   4
BRANCH   2  10
ATOM     10  C   UNL     1       7.991  -2.971  24.509  0.00  0.00    +0.000 C 
BRANCH  10  11
ATOM     11  C   UNL     1       7.861  -4.306  23.791  0.00  0.00    +0.000 C 
ATOM     12  C   UNL     1       7.322  -4.092  22.384  0.00  0.00    +0.000 C 
ATOM     13  C   UNL     1       7.067  -5.439  21.724  0.00  0.00    +0.000 C 
ATOM     14  C   UNL     1       5.956  -6.163  22.476  0.00  0.00    +0.000 C 
ATOM     15  C   UNL     1       5.627  -5.393  23.750  0.00  0.00    +0.000 C 
ATOM     16  C   UNL     1       6.899  -5.202  24.566  0.00  0.00    +0.000 C 
ENDBRANCH  10  11
ENDBRANCH   2  10
TORSDOF 3
ENDMDL
MODEL 4
REMARK VINA RESULT:      -5.5      1.634      1.932
REMARK  Name = 
REMARK  3 active torsions:
REMARK  status: ('A' for Active; 'I' for Inactive)
REMARK    1  A    between atoms: C_2  and  C_3
REMARK    2  A    between atoms: C_3  and  C_4
REMARK    3  A    between atoms: N_10  and  C_11
REMARK                            x       y       z     vdW  Elec       q    Type
REMARK                         _______ _______ _______ _____ _____    ______ ____
ROOT
ATOM      1  O   UNL     1      10.317  -3.084  23.890  0.00  0.00    +0.000 OA
ATOM      2  C   UNL     1       9.123  -2.937  23.722  0.00  0.00    +0.000 C 
ATOM      3  N   UNL     1       8.243  -3.919  24.004  0.00  0.00    +0.000 NA
ENDROOT
BRANCH   3   4
ATOM      4  C   UNL     1       7.555  -3.628  25.127  0.00  0.00    +0.000 A 
ATOM      5  C   UNL     1       8.306  -4.401  26.378  0.00  0.00    +0.000 A 
ATOM      6  C   UNL     1       7.303  -5.284  27.089  0.00  0.00    +0.000 A 
ATOM      7  C   UNL     1       5.873  -5.613  26.813  0.00  0.00    +0.000 A 
ATOM      8  N   UNL     1       5.305  -4.941  25.717  0.00  0.00    +0.000 NA
ATOM      9  C   UNL     1       6.127  -4.121  25.106  0.00  0.00    +0.000 A 
ENDBRANCH   3   4
BRANCH   2  10
ATOM     10  C   UNL     1       8.531  -1.578  23.430  0.00  0.00    +0.000 C 
BRANCH  10  11
ATOM     11  C   UNL     1       9.676  -0.585  23.306  0.00  0.00    +0.000 C 
ATOM     12  C   UNL     1       9.446   0.597  24.239  0.00  0.00    +0.000 C 
ATOM     13  C   UNL     1      10.523   1.647  24.009  0.00  0.00    +0.000 C 
ATOM     14  C   UNL     1      10.380   2.211  22.600  0.00  0.00    +0.000 C 
ATOM     15  C   UNL     1       9.352   1.389  21.831  0.00  0.00    +0.000 C 
ATOM     16  C   UNL     1       9.752  -0.081  21.869  0.00  0.00    +0.000 C 
ENDBRANCH  10  11
ENDBRANCH   2  10
TORSDOF 3
ENDMDL
MODEL 5
REMARK VINA RESULT:      -5.4      1.842      6.137
REMARK  Name = 
REMARK  3 active torsions:
REMARK  status: ('A' for Active; 'I' for Inactive)
REMARK    1  A    between atoms: C_2  and  C_3
REMARK    2  A    between atoms: C_3  and  C_4
REMARK    3  A    between atoms: N_10  and  C_11
REMARK                            x       y       z     vdW  Elec       q    Type
REMARK                         _______ _______ _______ _____ _____    ______ ____
ROOT
ATOM      1  O   UNL     1       8.584  -2.256  26.453  0.00  0.00    +0.000 OA
ATOM      2  C   UNL     1       8.454  -2.215  25.246  0.00  0.00    +0.000 C 
ATOM      3  N   UNL     1       8.366  -1.046  24.582  0.00  0.00    +0.000 NA
ENDROOT
BRANCH   3   4
ATOM      4  C   UNL     1       9.507  -0.796  23.909  0.00  0.00    +0.000 A 
ATOM      5  C   UNL     1      10.246   0.481  24.649  0.00  0.00    +0.000 A 
ATOM      6  C   UNL     1      10.485   1.574  23.628  0.00  0.00    +0.000 A 
ATOM      7  C   UNL     1      10.113   1.711  22.189  0.00  0.00    +0.000 A 
ATOM      8  N   UNL     1       9.462   0.597  21.631  0.00  0.00    +0.000 NA
ATOM      9  C   UNL     1       9.285  -0.396  22.469  0.00  0.00    +0.000 A 
ENDBRANCH   3   4
BRANCH   2  10
ATOM     10  C   UNL     1       8.637  -3.450  24.394  0.00  0.00    +0.000 C 
BRANCH  10  11
ATOM     11  C   UNL     1       7.275  -3.850  23.850  0.00  0.00    +0.000 C 
ATOM     12  C   UNL     1       6.823  -5.159  24.484  0.00  0.00    +0.000 C 
ATOM     13  C   UNL     1       5.526  -5.620  23.836  0.00  0.00    +0.000 C 
ATOM     14  C   UNL     1       5.788  -5.951  22.371  0.00  0.00    +0.000 C 
ATOM     15  C   UNL     1       7.200  -5.508  22.000  0.00  0.00    +0.000 C 
ATOM     16  C   UNL     1       7.370  -4.033  22.338  0.00  0.00    +0.000 C 
ENDBRANCH  10  11
ENDBRANCH   2  10
TORSDOF 3
ENDMDL
MODEL 6
REMARK VINA RESULT:      -5.4      2.010      2.881
REMARK  Name = 
REMARK  3 active torsions:
REMARK  status: ('A' for Active; 'I' for Inactive)
REMARK    1  A    between atoms: C_2  and  C_3
REMARK    2  A    between atoms: C_3  and  C_4
REMARK    3  A    between atoms: N_10  and  C_11
REMARK                            x       y       z     vdW  Elec       q    Type
REMARK                         _______ _______ _______ _____ _____    ______ ____
ROOT
ATOM      1  O   UNL     1       6.523  -2.555  21.763  0.00  0.00    +0.000 OA
ATOM      2  C   UNL     1       7.247  -2.367  22.720  0.00  0.00    +0.000 C 
ATOM      3  N   UNL     1       6.886  -2.737  23.965  0.00  0.00    +0.000 NA
ENDROOT
BRANCH   3   4
ATOM      4  C   UNL     1       7.583  -3.823  24.356  0.00  0.00    +0.000 A 
ATOM      5  C   UNL     1       6.513  -5.073  24.488  0.00  0.00    +0.000 A 
ATOM      6  C   UNL     1       6.596  -5.651  25.885  0.00  0.00    +0.000 A 
ATOM      7  C   UNL     1       7.367  -5.250  27.100  0.00  0.00    +0.000 A 
ATOM      8  N   UNL     1       8.238  -4.162  26.923  0.00  0.00    +0.000 NA
ATOM      9  C   UNL     1       8.238  -3.666  25.708  0.00  0.00    +0.000 A 
ENDBRANCH   3   4
BRANCH   2  10
ATOM     10  C   UNL     1       8.687  -1.942  22.545  0.00  0.00    +0.000 C 
BRANCH  10  11
ATOM     11  C   UNL     1       8.760  -0.437  22.749  0.00  0.00    +0.000 C 
ATOM     12  C   UNL     1       9.728   0.179  21.748  0.00  0.00    +0.000 C 
ATOM     13  C   UNL     1       9.898   1.661  22.047  0.00  0.00    +0.000 C 
ATOM     14  C   UNL     1      10.566   1.825  23.407  0.00  0.00    +0.000 C 
ATOM     15  C   UNL     1      10.643   0.466  24.096  0.00  0.00    +0.000 C 
ATOM     16  C   UNL     1       9.249  -0.144  24.164  0.00  0.00    +0.000 C 
ENDBRANCH  10  11
ENDBRANCH   2  10
TORSDOF 3
ENDMDL
MODEL 7
REMARK VINA RESULT:      -5.3      2.823      4.110
REMARK  Name = 
REMARK  3 active torsions:
REMARK  status: ('A' for Active; 'I' for Inactive)
REMARK    1  A    between atoms: C_2  and  C_3
REMARK    2  A    between atoms: C_3  and  C_4
REMARK    3  A    between atoms: N_10  and  C_11
REMARK                            x       y       z     vdW  Elec       q    Type
REMARK                         _______ _______ _______ _____ _____    ______ ____
ROOT
ATOM      1  O   UNL     1       6.144  -0.263  24.274  0.00  0.00    +0.000 OA
ATOM      2  C   UNL     1       7.280  -0.625  24.043  0.00  0.00    +0.000 C 
ATOM      3  N   UNL     1       7.904  -1.535  24.816  0.00  0.00    +0.000 NA
ENDROOT
BRANCH   3   4
ATOM      4  C   UNL     1       7.991  -2.720  24.177  0.00  0.00    +0.000 A 
ATOM      5  C   UNL     1       6.902  -3.741  24.881  0.00  0.00    +0.000 A 
ATOM      6  C   UNL     1       7.625  -4.984  25.355  0.00  0.00    +0.000 A 
ATOM      7  C   UNL     1       9.066  -5.373  25.366  0.00  0.00    +0.000 A 
ATOM      8  N   UNL     1       9.940  -4.445  24.775  0.00  0.00    +0.000 NA
ATOM      9  C   UNL     1       9.346  -3.375  24.300  0.00  0.00    +0.000 A 
ENDBRANCH   3   4
BRANCH   2  10
ATOM     10  C   UNL     1       7.969  -0.274  22.743  0.00  0.00    +0.000 C 
BRANCH  10  11
ATOM     11  C   UNL     1       6.901  -0.145  21.668  0.00  0.00    +0.000 C 
ATOM     12  C   UNL     1       6.709  -1.480  20.960  0.00  0.00    +0.000 C 
ATOM     13  C   UNL     1       5.741  -1.308  19.799  0.00  0.00    +0.000 C 
ATOM     14  C   UNL     1       6.366  -0.386  18.758  0.00  0.00    +0.000 C 
ATOM     15  C   UNL     1       7.647   0.217  19.325  0.00  0.00    +0.000 C 
ATOM     16  C   UNL     1       7.337   0.903  20.649  0.00  0.00    +0.000 C 
ENDBRANCH  10  11
ENDBRANCH   2  10
TORSDOF 3
ENDMDL
MODEL 8
REMARK VINA RESULT:      -5.3      2.028      6.051
REMARK  Name = 
REMARK  3 active torsions:
REMARK  status: ('A' for Active; 'I' for Inactive)
REMARK    1  A    between atoms: C_2  and  C_3
REMARK    2  A    between atoms: C_3  and  C_4
REMARK    3  A    between atoms: N_10  and  C_11
REMARK                            x       y       z     vdW  Elec       q    Type
REMARK                         _______ _______ _______ _____ _____    ______ ____
ROOT
ATOM      1  O   UNL     1      10.332  -3.141  23.853  0.00  0.00    +0.000 OA
ATOM      2  C   UNL     1       9.188  -2.734  23.838  0.00  0.00    +0.000 C 
ATOM      3  N   UNL     1       8.904  -1.417  23.885  0.00  0.00    +0.000 NA
ENDROOT
BRANCH   3   4
ATOM      4  C   UNL     1       8.484  -0.981  22.680  0.00  0.00    +0.000 A 
ATOM      5  C   UNL     1       9.766  -0.237  21.952  0.00  0.00    +0.000 A 
ATOM      6  C   UNL     1       9.372   1.176  21.579  0.00  0.00    +0.000 A 
ATOM      7  C   UNL     1       8.135   1.977  21.820  0.00  0.00    +0.000 A 
ATOM      8  N   UNL     1       7.095   1.290  22.469  0.00  0.00    +0.000 NA
ATOM      9  C   UNL     1       7.376   0.042  22.761  0.00  0.00    +0.000 A 
ENDBRANCH   3   4
BRANCH   2  10
ATOM     10  C   UNL     1       8.031  -3.651  23.515  0.00  0.00    +0.000 C 
BRANCH  10  11
ATOM     11  C   UNL     1       7.267  -3.914  24.803  0.00  0.00    +0.000 C 
ATOM     12  C   UNL     1       7.900  -5.075  25.558  0.00  0.00    +0.000 C 
ATOM     13  C   UNL     1       7.051  -5.418  26.773  0.00  0.00    +0.000 C 
ATOM     14  C   UNL     1       5.693  -5.932  26.308  0.00  0.00    +0.000 C 
ATOM     15  C   UNL     1       5.569  -5.729  24.801  0.00  0.00    +0.000 C 
ATOM     16  C   UNL     1       5.820  -4.263  24.469  0.00  0.00    +0.000 C 
ENDBRANCH  10  11
ENDBRANCH   2  10
TORSDOF 3
ENDMDL
MODEL 9
REMARK VINA RESULT:      -5.2      1.863      2.369
REMARK  Name = 
REMARK  3 active torsions:
REMARK  status: ('A' for Active; 'I' for Inactive)
REMARK    1  A    between atoms: C_2  and  C_3
REMARK    2  A    between atoms: C_3  and  C_4
REMARK    3  A    between atoms: N_10  and  C_11
REMARK                            x       y       z     vdW  Elec       q    Type
REMARK                         _______ _______ _______ _____ _____    ______ ____
ROOT
ATOM      1  O   UNL     1       7.006  -1.103  20.961  0.00  0.00    +0.000 OA
ATOM      2  C   UNL     1       7.172  -1.514  22.092  0.00  0.00    +0.000 C 
ATOM      3  N   UNL     1       6.307  -2.373  22.666  0.00  0.00    +0.000 NA
ENDROOT
BRANCH   3   4
ATOM      4  C   UNL     1       6.843  -3.609  22.735  0.00  0.00    +0.000 A 
ATOM      5  C   UNL     1       6.160  -4.509  21.531  0.00  0.00    +0.000 A 
ATOM      6  C   UNL     1       5.529  -5.746  22.134  0.00  0.00    +0.000 A 
ATOM      7  C   UNL     1       5.361  -6.209  23.544  0.00  0.00    +0.000 A 
ATOM      8  N   UNL     1       5.943  -5.382  24.518  0.00  0.00    +0.000 NA
ATOM      9  C   UNL     1       6.550  -4.325  24.032  0.00  0.00    +0.000 A 
ENDBRANCH   3   4
BRANCH   2  10
ATOM     10  C   UNL     1       8.475  -1.294  22.826  0.00  0.00    +0.000 C 
BRANCH  10  11
ATOM     11  C   UNL     1       8.707   0.206  22.929  0.00  0.00    +0.000 C 
ATOM     12  C   UNL     1       9.852   0.621  22.016  0.00  0.00    +0.000 C 
ATOM     13  C   UNL     1      10.165   2.095  22.227  0.00  0.00    +0.000 C 
ATOM     14  C   UNL     1      10.685   2.299  23.646  0.00  0.00    +0.000 C 
ATOM     15  C   UNL     1      10.515   1.005  24.434  0.00  0.00    +0.000 C 
ATOM     16  C   UNL     1       9.059   0.563  24.369  0.00  0.00    +0.000 C 
ENDBRANCH  10  11
ENDBRANCH   2  10
TORSDOF 3
ENDMDL
