MODEL 1
REMARK VINA RESULT:      -6.7      0.000      0.000
REMARK  Name = 
REMARK  3 active torsions:
REMARK  status: ('A' for Active; 'I' for Inactive)
REMARK    1  A    between atoms: C_8  and  S_9
REMARK    2  A    between atoms: S_9  and  N_12
REMARK    3  A    between atoms: C_18  and  C_20
REMARK                            x       y       z     vdW  Elec       q    Type
REMARK                         _______ _______ _______ _____ _____    ______ ____
ROOT
ATOM      1  S   UNL     1       9.752  -1.022  22.915  0.00  0.00    +0.000 S 
ATOM      2  O   UNL     1      10.341  -0.441  24.097  0.00  0.00    +0.000 OA
ATOM      3  O   UNL     1      10.606  -1.921  22.182  0.00  0.00    +0.000 OA
ENDROOT
BRANCH   1  11
ATOM      4  F   UNL     1      10.658   2.435  21.737  0.00  0.00    +0.000 F 
ATOM      5  C   UNL     1       9.866   1.599  22.533  0.00  0.00    +0.000 A 
ATOM      6  C   UNL     1       8.595   2.698  22.571  0.00  0.00    +0.000 A 
ATOM      7  C   UNL     1       7.372   1.986  22.079  0.00  0.00    +0.000 A 
ATOM      8  C   UNL     1       7.167   0.885  21.040  0.00  0.00    +0.000 A 
ATOM      9  C   UNL     1       8.316  -0.131  21.024  0.00  0.00    +0.000 A 
ATOM     10  F   UNL     1       8.672  -0.309  19.758  0.00  0.00    +0.000 F 
ATOM     11  C   UNL     1       9.507   0.408  21.772  0.00  0.00    +0.000 A 
ENDBRANCH   1  11
BRANCH   1  12
ATOM     12  N   UNL     1       8.353  -1.688  23.244  0.00  0.00    +0.000 NA
ATOM     13  C   UNL     1       8.222  -3.030  22.882  0.00  0.00    +0.000 C 
ATOM     14  C   UNL     1       8.550  -3.935  24.085  0.00  0.00    +0.000 C 
ATOM     15  N   UNL     1       7.549  -3.563  25.120  0.00  0.00    +0.000 N 
ATOM     16  C   UNL     1       7.522  -2.163  25.513  0.00  0.00    +0.000 C 
ATOM     17  C   UNL     1       7.639  -1.253  24.325  0.00  0.00    +0.000 C 
ATOM     18  C   UNL     1       6.345  -4.213  24.995  0.00  0.00    +0.000 C 
ATOM     19  O   UNL     1       5.812  -4.219  23.895  0.00  0.00    +0.000 OA
BRANCH  18  20
ATOM     20  C   UNL     1       6.201  -5.412  25.918  0.00  0.00    +0.000 C 
ATOM     21 CL   UNL     1       7.476  -5.353  27.162  0.00  0.00    +0.000 Cl
ENDBRANCH  18  20
ENDBRANCH   1  12
TORSDOF 3
ENDMDL
MODEL 2
REMARK VINA RESULT:      -6.7      2.297      3.001
REMARK  Name = 
REMARK  3 active torsions:
REMARK  status: ('A' for Active; 'I' for Inactive)
REMARK    1  A    between atoms: C_8  and  S_9
REMARK    2  A    between atoms: S_9  and  N_12
REMARK    3  A    between atoms: C_18  and  C_20
REMARK                            x       y       z     vdW  Elec       q    Type
REMARK                         _______ _______ _______ _____ _____    ______ ____
ROOT
ATOM      1  S   UNL     1       7.181  -1.751  22.601  0.00  0.00    +0.000 S 
ATOM      2  O   UNL     1       6.419  -2.113  21.431  0.00  0.00    +0.000 OA
ATOM      3  O   UNL     1       6.667  -0.631  23.347  0.00  0.00    +0.000 OA
ENDROOT
BRANCH   1  11
ATOM      4  F   UNL     1      10.937  -1.910  22.448  0.00  0.00    +0.000 F 
ATOM      5  C   UNL     1       9.773  -1.356  22.992  0.00  0.00    +0.000 A 
ATOM      6  C   UNL     1      10.544   0.084  23.390  0.00  0.00    +0.000 A 
ATOM      7  C   UNL     1       9.768   1.197  22.753  0.00  0.00    +0.000 A 
ATOM      8  C   UNL     1       8.983   1.292  21.447  0.00  0.00    +0.000 A 
ATOM      9  C   UNL     1       8.260  -0.015  21.098  0.00  0.00    +0.000 A 
ATOM     10  F   UNL     1       8.515  -0.285  19.825  0.00  0.00    +0.000 F 
ATOM     11  C   UNL     1       8.795  -1.151  21.932  0.00  0.00    +0.000 A 
ENDBRANCH   1  11
BRANCH   1  12
ATOM     12  N   UNL     1       7.424  -3.008  23.534  0.00  0.00    +0.000 NA
ATOM     13  C   UNL     1       6.942  -2.894  24.839  0.00  0.00    +0.000 C 
ATOM     14  C   UNL     1       5.538  -3.521  24.939  0.00  0.00    +0.000 C 
ATOM     15  N   UNL     1       5.735  -4.947  24.567  0.00  0.00    +0.000 N 
ATOM     16  C   UNL     1       6.325  -5.194  23.261  0.00  0.00    +0.000 C 
ATOM     17  C   UNL     1       7.464  -4.257  22.982  0.00  0.00    +0.000 C 
ATOM     18  C   UNL     1       6.136  -5.748  25.609  0.00  0.00    +0.000 C 
ATOM     19  O   UNL     1       7.079  -5.369  26.290  0.00  0.00    +0.000 OA
BRANCH  18  20
ATOM     20  C   UNL     1       5.001  -6.530  26.248  0.00  0.00    +0.000 C 
ATOM     21 CL   UNL     1       4.015  -7.287  24.971  0.00  0.00    +0.000 Cl
ENDBRANCH  18  20
ENDBRANCH   1  12
TORSDOF 3
ENDMDL
MODEL 3
REMARK VINA RESULT:      -6.6      2.350      2.869
REMARK  Name = 
REMARK  3 active torsions:
REMARK  status: ('A' for Active; 'I' for Inactive)
REMARK    1  A    between atoms: C_8  and  S_9
REMARK    2  A    between atoms: S_9  and  N_12
REMARK    3  A    between atoms: C_18  and  C_20
REMARK                            x       y       z     vdW  Elec       q    Type
REMARK                         _______ _______ _______ _____ _____    ______ ____
ROOT
ATOM      1  S   UNL     1       8.157  -1.008  24.598  0.00  0.00    +0.000 S 
ATOM      2  O   UNL     1       7.207  -0.799  23.531  0.00  0.00    +0.000 OA
ATOM      3  O   UNL     1       7.977  -0.167  25.753  0.00  0.00    +0.000 OA
ENDROOT
BRANCH   1  11
ATOM      4  F   UNL     1      11.580   0.503  24.993  0.00  0.00    +0.000 F 
ATOM      5  C   UNL     1      10.219   0.654  24.701  0.00  0.00    +0.000 A 
ATOM      6  C   UNL     1      10.487   2.018  23.756  0.00  0.00    +0.000 A 
ATOM      7  C   UNL     1       9.884   1.755  22.409  0.00  0.00    +0.000 A 
ATOM      8  C   UNL     1       9.734   0.483  21.577  0.00  0.00    +0.000 A 
ATOM      9  C   UNL     1       9.466  -0.756  22.440  0.00  0.00    +0.000 A 
ATOM     10  F   UNL     1      10.286  -1.715  22.028  0.00  0.00    +0.000 F 
ATOM     11  C   UNL     1       9.774  -0.469  23.886  0.00  0.00    +0.000 A 
ENDBRANCH   1  11
BRANCH   1  12
ATOM     12  N   UNL     1       8.234  -2.539  25.000  0.00  0.00    +0.000 NA
ATOM     13  C   UNL     1       7.932  -2.830  26.331  0.00  0.00    +0.000 C 
ATOM     14  C   UNL     1       6.448  -3.223  26.461  0.00  0.00    +0.000 C 
ATOM     15  N   UNL     1       6.303  -4.431  25.606  0.00  0.00    +0.000 N 
ATOM     16  C   UNL     1       6.681  -4.279  24.211  0.00  0.00    +0.000 C 
ATOM     17  C   UNL     1       7.952  -3.494  24.065  0.00  0.00    +0.000 C 
ATOM     18  C   UNL     1       6.640  -5.606  26.234  0.00  0.00    +0.000 C 
ATOM     19  O   UNL     1       7.709  -5.650  26.825  0.00  0.00    +0.000 OA
BRANCH  18  20
ATOM     20  C   UNL     1       5.443  -6.378  26.764  0.00  0.00    +0.000 C 
ATOM     21 CL   UNL     1       4.443  -6.928  25.395  0.00  0.00    +0.000 Cl
ENDBRANCH  18  20
ENDBRANCH   1  12
TORSDOF 3
ENDMDL
MODEL 4
REMARK VINA RESULT:      -6.6      2.545      2.761
REMARK  Name = 
REMARK  3 active torsions:
REMARK  status: ('A' for Active; 'I' for Inactive)
REMARK    1  A    between atoms: C_8  and  S_9
REMARK    2  A    between atoms: S_9  and  N_12
REMARK    3  A    between atoms: C_18  and  C_20
REMARK                            x       y       z     vdW  Elec       q    Type
REMARK                         _______ _______ _______ _____ _____    ______ ____
ROOT
ATOM      1  S   UNL     1       9.096  -2.624  24.548  0.00  0.00    +0.000 S 
ATOM      2  O   UNL     1       8.772  -2.298  25.916  0.00  0.00    +0.000 OA
ATOM      3  O   UNL     1       9.984  -3.745  24.378  0.00  0.00    +0.000 OA
ENDROOT
BRANCH   1  11
ATOM      4  F   UNL     1      10.921   0.602  25.197  0.00  0.00    +0.000 F 
ATOM      5  C   UNL     1       9.746  -0.070  24.844  0.00  0.00    +0.000 A 
ATOM      6  C   UNL     1       9.150   1.246  23.986  0.00  0.00    +0.000 A 
ATOM      7  C   UNL     1       8.840   0.774  22.598  0.00  0.00    +0.000 A 
ATOM      8  C   UNL     1       9.493  -0.271  21.695  0.00  0.00    +0.000 A 
ATOM      9  C   UNL     1      10.013  -1.483  22.476  0.00  0.00    +0.000 A 
ATOM     10  F   UNL     1      11.249  -1.726  22.058  0.00  0.00    +0.000 F 
ATOM     11  C   UNL     1      10.073  -1.174  23.950  0.00  0.00    +0.000 A 
ENDBRANCH   1  11
BRANCH   1  12
ATOM     12  N   UNL     1       7.785  -2.782  23.673  0.00  0.00    +0.000 NA
ATOM     13  C   UNL     1       7.528  -4.068  23.196  0.00  0.00    +0.000 C 
ATOM     14  C   UNL     1       6.569  -4.803  24.151  0.00  0.00    +0.000 C 
ATOM     15  N   UNL     1       5.331  -3.978  24.149  0.00  0.00    +0.000 N 
ATOM     16  C   UNL     1       5.488  -2.586  24.537  0.00  0.00    +0.000 C 
ATOM     17  C   UNL     1       6.711  -1.974  23.919  0.00  0.00    +0.000 C 
ATOM     18  C   UNL     1       4.472  -4.259  23.114  0.00  0.00    +0.000 C 
ATOM     19  O   UNL     1       4.935  -4.302  21.984  0.00  0.00    +0.000 OA
BRANCH  18  20
ATOM     20  C   UNL     1       3.329  -5.181  23.505  0.00  0.00    +0.000 C 
ATOM     21 CL   UNL     1       3.089  -5.107  25.269  0.00  0.00    +0.000 Cl
ENDBRANCH  18  20
ENDBRANCH   1  12
TORSDOF 3
ENDMDL
MODEL 5
REMARK VINA RESULT:      -6.6      3.719      6.456
REMARK  Name = 
REMARK  3 active torsions:
REMARK  status: ('A' for Active; 'I' for Inactive)
REMARK    1  A    between atoms: C_8  and  S_9
REMARK    2  A    between atoms: S_9  and  N_12
REMARK    3  A    between atoms: C_18  and  C_20
REMARK                            x       y       z     vdW  Elec       q    Type
REMARK                         _______ _______ _______ _____ _____    ______ ____
ROOT
ATOM      1  S   UNL     1       7.174  -3.313  24.523  0.00  0.00    +0.000 S 
ATOM      2  O   UNL     1       7.821  -3.359  25.813  0.00  0.00    +0.000 OA
ATOM      3  O   UNL     1       5.847  -2.752  24.522  0.00  0.00    +0.000 OA
ENDROOT
BRANCH   1  11
ATOM      4  F   UNL     1       8.005  -6.319  22.418  0.00  0.00    +0.000 F 
ATOM      5  C   UNL     1       7.214  -5.187  22.649  0.00  0.00    +0.000 A 
ATOM      6  C   UNL     1       5.907  -5.824  21.806  0.00  0.00    +0.000 A 
ATOM      7  C   UNL     1       4.726  -5.801  22.727  0.00  0.00    +0.000 A 
ATOM      8  C   UNL     1       4.593  -5.977  24.239  0.00  0.00    +0.000 A 
ATOM      9  C   UNL     1       5.775  -5.373  25.008  0.00  0.00    +0.000 A 
ATOM     10  F   UNL     1       6.181  -6.277  25.890  0.00  0.00    +0.000 F 
ATOM     11  C   UNL     1       6.921  -5.086  24.073  0.00  0.00    +0.000 A 
ENDBRANCH   1  11
BRANCH   1  12
ATOM     12  N   UNL     1       8.101  -2.615  23.445  0.00  0.00    +0.000 NA
ATOM     13  C   UNL     1       7.493  -1.621  22.678  0.00  0.00    +0.000 C 
ATOM     14  C   UNL     1       7.758  -0.237  23.301  0.00  0.00    +0.000 C 
ATOM     15  N   UNL     1       9.238  -0.093  23.281  0.00  0.00    +0.000 N 
ATOM     16  C   UNL     1       9.993  -1.128  23.969  0.00  0.00    +0.000 C 
ATOM     17  C   UNL     1       9.441  -2.495  23.686  0.00  0.00    +0.000 C 
ATOM     18  C   UNL     1       9.741   0.378  22.092  0.00  0.00    +0.000 C 
ATOM     19  O   UNL     1       9.369  -0.166  21.062  0.00  0.00    +0.000 OA
BRANCH  18  20
ATOM     20  C   UNL     1      10.038   1.868  22.104  0.00  0.00    +0.000 C 
ATOM     21 CL   UNL     1      10.684   2.327  23.699  0.00  0.00    +0.000 Cl
ENDBRANCH  18  20
ENDBRANCH   1  12
TORSDOF 3
ENDMDL
MODEL 6
REMARK VINA RESULT:      -6.5      3.322      6.008
REMARK  Name = 
REMARK  3 active torsions:
REMARK  status: ('A' for Active; 'I' for Inactive)
REMARK    1  A    between atoms: C_8  and  S_9
REMARK    2  A    between atoms: S_9  and  N_12
REMARK    3  A    between atoms: C_18  and  C_20
REMARK                            x       y       z     vdW  Elec       q    Type
REMARK                         _______ _______ _______ _____ _____    ______ ____
ROOT
ATOM      1  S   UNL     1       8.174  -4.154  24.843  0.00  0.00    +0.000 S 
ATOM      2  O   UNL     1       9.019  -5.169  24.259  0.00  0.00    +0.000 OA
ATOM      3  O   UNL     1       7.640  -4.472  26.141  0.00  0.00    +0.000 OA
ENDROOT
BRANCH   1  11
ATOM      4  F   UNL     1       4.673  -2.994  24.100  0.00  0.00    +0.000 F 
ATOM      5  C   UNL     1       5.540  -3.962  24.620  0.00  0.00    +0.000 A 
ATOM      6  C   UNL     1       4.437  -5.206  24.368  0.00  0.00    +0.000 A 
ATOM      7  C   UNL     1       5.122  -6.250  23.539  0.00  0.00    +0.000 A 
ATOM      8  C   UNL     1       6.174  -6.164  22.435  0.00  0.00    +0.000 A 
ATOM      9  C   UNL     1       7.193  -5.044  22.679  0.00  0.00    +0.000 A 
ATOM     10  F   UNL     1       7.317  -4.364  21.547  0.00  0.00    +0.000 F 
ATOM     11  C   UNL     1       6.694  -4.098  23.740  0.00  0.00    +0.000 A 
ENDBRANCH   1  11
BRANCH   1  12
ATOM     12  N   UNL     1       8.895  -2.743  24.841  0.00  0.00    +0.000 NA
ATOM     13  C   UNL     1       9.910  -2.584  23.896  0.00  0.00    +0.000 C 
ATOM     14  C   UNL     1       9.350  -1.917  22.626  0.00  0.00    +0.000 C 
ATOM     15  N   UNL     1       8.841  -0.598  23.087  0.00  0.00    +0.000 N 
ATOM     16  C   UNL     1       7.843  -0.629  24.144  0.00  0.00    +0.000 C 
ATOM     17  C   UNL     1       8.194  -1.629  25.207  0.00  0.00    +0.000 C 
ATOM     18  C   UNL     1       9.801   0.384  23.145  0.00  0.00    +0.000 C 
ATOM     19  O   UNL     1      10.847   0.125  23.722  0.00  0.00    +0.000 OA
BRANCH  18  20
ATOM     20  C   UNL     1       9.805   1.304  21.936  0.00  0.00    +0.000 C 
ATOM     21 CL   UNL     1       8.259   1.139  21.065  0.00  0.00    +0.000 Cl
ENDBRANCH  18  20
ENDBRANCH   1  12
TORSDOF 3
ENDMDL
MODEL 7
REMARK VINA RESULT:      -6.5      2.504      2.857
REMARK  Name = 
REMARK  3 active torsions:
REMARK  status: ('A' for Active; 'I' for Inactive)
REMARK    1  A    between atoms: C_8  and  S_9
REMARK    2  A    between atoms: S_9  and  N_12
REMARK    3  A    between atoms: C_18  and  C_20
REMARK                            x       y       z     vdW  Elec       q    Type
REMARK                         _______ _______ _______ _____ _____    ______ ____
ROOT
ATOM      1  S   UNL     1       9.666  -0.156  24.812  0.00  0.00    +0.000 S 
ATOM      2  O   UNL     1       8.773   0.045  25.929  0.00  0.00    +0.000 OA
ATOM      3  O   UNL     1      11.023   0.277  25.025  0.00  0.00    +0.000 OA
ENDROOT
BRANCH   1  11
ATOM      4  F   UNL     1      10.217   2.020  21.792  0.00  0.00    +0.000 F 
ATOM      5  C   UNL     1      10.120   1.885  23.182  0.00  0.00    +0.000 A 
ATOM      6  C   UNL     1       9.660   3.488  23.391  0.00  0.00    +0.000 A 
ATOM      7  C   UNL     1       8.365   3.487  24.144  0.00  0.00    +0.000 A 
ATOM      8  C   UNL     1       7.176   2.528  24.152  0.00  0.00    +0.000 A 
ATOM      9  C   UNL     1       7.600   1.064  23.986  0.00  0.00    +0.000 A 
ATOM     10  F   UNL     1       6.819   0.525  23.059  0.00  0.00    +0.000 F 
ATOM     11  C   UNL     1       9.025   0.979  23.503  0.00  0.00    +0.000 A 
ENDBRANCH   1  11
BRANCH   1  12
ATOM     12  N   UNL     1       9.606  -1.653  24.297  0.00  0.00    +0.000 NA
ATOM     13  C   UNL     1       8.874  -2.536  25.091  0.00  0.00    +0.000 C 
ATOM     14  C   UNL     1       7.435  -2.657  24.557  0.00  0.00    +0.000 C 
ATOM     15  N   UNL     1       7.588  -3.185  23.176  0.00  0.00    +0.000 N 
ATOM     16  C   UNL     1       8.415  -2.397  22.275  0.00  0.00    +0.000 C 
ATOM     17  C   UNL     1       9.659  -1.905  22.955  0.00  0.00    +0.000 C 
ATOM     18  C   UNL     1       7.697  -4.554  23.108  0.00  0.00    +0.000 C 
ATOM     19  O   UNL     1       8.505  -5.098  23.846  0.00  0.00    +0.000 OA
BRANCH  18  20
ATOM     20  C   UNL     1       6.394  -5.252  22.757  0.00  0.00    +0.000 C 
ATOM     21 CL   UNL     1       6.419  -5.715  21.036  0.00  0.00    +0.000 Cl
ENDBRANCH  18  20
ENDBRANCH   1  12
TORSDOF 3
ENDMDL
MODEL 8
REMARK VINA RESULT:      -6.4      3.802      6.070
REMARK  Name = 
REMARK  3 active torsions:
REMARK  status: ('A' for Active; 'I' for Inactive)
REMARK    1  A    between atoms: C_8  and  S_9
REMARK    2  A    between atoms: S_9  and  N_12
REMARK    3  A    between atoms: C_18  and  C_20
REMARK                            x       y       z     vdW  Elec       q    Type
REMARK                         _______ _______ _______ _____ _____    ______ ____
ROOT
ATOM      1  S   UNL     1       9.697  -0.898  22.280  0.00  0.00    +0.000 S 
ATOM      2  O   UNL     1       9.098  -0.701  20.982  0.00  0.00    +0.000 OA
ATOM      3  O   UNL     1      10.764  -1.864  22.324  0.00  0.00    +0.000 OA
ENDROOT
BRANCH   1  11
ATOM      4  F   UNL     1       8.565  -3.055  25.147  0.00  0.00    +0.000 F 
ATOM      5  C   UNL     1       8.885  -2.918  23.791  0.00  0.00    +0.000 A 
ATOM      6  C   UNL     1       7.901  -4.205  23.343  0.00  0.00    +0.000 A 
ATOM      7  C   UNL     1       6.947  -3.698  22.304  0.00  0.00    +0.000 A 
ATOM      8  C   UNL     1       6.275  -2.343  22.094  0.00  0.00    +0.000 A 
ATOM      9  C   UNL     1       7.183  -1.169  22.480  0.00  0.00    +0.000 A 
ATOM     10  F   UNL     1       6.470  -0.345  23.236  0.00  0.00    +0.000 F 
ATOM     11  C   UNL     1       8.353  -1.655  23.296  0.00  0.00    +0.000 A 
ENDBRANCH   1  11
BRANCH   1  12
ATOM     12  N   UNL     1      10.137   0.484  22.920  0.00  0.00    +0.000 NA
ATOM     13  C   UNL     1       9.966   1.607  22.109  0.00  0.00    +0.000 C 
ATOM     14  C   UNL     1       8.617   2.282  22.422  0.00  0.00    +0.000 C 
ATOM     15  N   UNL     1       8.714   2.669  23.855  0.00  0.00    +0.000 N 
ATOM     16  C   UNL     1       8.989   1.593  24.793  0.00  0.00    +0.000 C 
ATOM     17  C   UNL     1      10.041   0.659  24.271  0.00  0.00    +0.000 C 
ATOM     18  C   UNL     1       9.335   3.876  24.069  0.00  0.00    +0.000 C 
ATOM     19  O   UNL     1      10.411   4.068  23.520  0.00  0.00    +0.000 OA
BRANCH  18  20
ATOM     20  C   UNL     1       8.369   5.030  24.278  0.00  0.00    +0.000 C 
ATOM     21 CL   UNL     1       8.093   5.856  22.724  0.00  0.00    +0.000 Cl
ENDBRANCH  18  20
ENDBRANCH   1  12
TORSDOF 3
ENDMDL
MODEL 9
REMARK VINA RESULT:      -6.3      2.340      2.899
REMARK  Name = 
REMARK  3 active torsions:
REMARK  status: ('A' for Active; 'I' for Inactive)
REMARK    1  A    between atoms: C_8  and  S_9
REMARK    2  A    between atoms: S_9  and  N_12
REMARK    3  A    between atoms: C_18  and  C_20
REMARK                            x       y       z     vdW  Elec       q    Type
REMARK                         _______ _______ _______ _____ _____    ______ ____
ROOT
ATOM      1  S   UNL     1       8.725  -1.950  23.147  0.00  0.00    +0.000 S 
ATOM      2  O   UNL     1       9.578  -2.688  24.047  0.00  0.00    +0.000 OA
ATOM      3  O   UNL     1       9.246  -1.770  21.817  0.00  0.00    +0.000 OA
ENDROOT
BRANCH   1  11
ATOM      4  F   UNL     1       7.090   1.422  23.489  0.00  0.00    +0.000 F 
ATOM      5  C   UNL     1       8.020   0.589  22.856  0.00  0.00    +0.000 A 
ATOM      6  C   UNL     1       8.998   1.881  22.407  0.00  0.00    +0.000 A 
ATOM      7  C   UNL     1      10.373   1.607  22.935  0.00  0.00    +0.000 A 
ATOM      8  C   UNL     1      10.872   0.901  24.195  0.00  0.00    +0.000 A 
ATOM      9  C   UNL     1       9.993  -0.292  24.589  0.00  0.00    +0.000 A 
ATOM     10  F   UNL     1       9.742  -0.191  25.888  0.00  0.00    +0.000 F 
ATOM     11  C   UNL     1       8.679  -0.244  23.854  0.00  0.00    +0.000 A 
ENDBRANCH   1  11
BRANCH   1  12
ATOM     12  N   UNL     1       7.262  -2.557  23.121  0.00  0.00    +0.000 NA
ATOM     13  C   UNL     1       7.067  -3.627  22.247  0.00  0.00    +0.000 C 
ATOM     14  C   UNL     1       7.238  -4.961  22.999  0.00  0.00    +0.000 C 
ATOM     15  N   UNL     1       6.188  -4.936  24.052  0.00  0.00    +0.000 N 
ATOM     16  C   UNL     1       6.228  -3.810  24.971  0.00  0.00    +0.000 C 
ATOM     17  C   UNL     1       6.498  -2.520  24.254  0.00  0.00    +0.000 C 
ATOM     18  C   UNL     1       4.956  -5.368  23.625  0.00  0.00    +0.000 C 
ATOM     19  O   UNL     1       4.510  -4.888  22.592  0.00  0.00    +0.000 OA
BRANCH  18  20
ATOM     20  C   UNL     1       4.659  -6.814  23.983  0.00  0.00    +0.000 C 
ATOM     21 CL   UNL     1       4.428  -6.949  25.745  0.00  0.00    +0.000 Cl
ENDBRANCH  18  20
ENDBRANCH   1  12
TORSDOF 3
ENDMDL
