MODEL 1
REMARK VINA RESULT:      -3.2      0.000      0.000
REMARK  Name = 
REMARK  1 active torsions:
REMARK  status: ('A' for Active; 'I' for Inactive)
REMARK    1  A    between atoms: C_3  and  C_4
REMARK                            x       y       z     vdW  Elec       q    Type
REMARK                         _______ _______ _______ _____ _____    ______ ____
ROOT
ATOM      1  C   UNL     1       5.877   0.482  18.247  0.00  0.00    +0.000 C 
ATOM      2  N   UNL     1       6.320   1.293  17.369  0.00  0.00    +0.000 NA
ATOM      3  N   UNL     1       6.041  -0.793  17.788  0.00  0.00    +0.000 NA
ENDROOT
BRANCH   1   5
ATOM      4  C   UNL     1       7.757   0.131  19.806  0.00  0.00    +0.000 C 
ATOM      5  C   UNL     1       6.377   0.745  19.639  0.00  0.00    +0.000 C 
ENDBRANCH   1   5
TORSDOF 1
ENDMDL
MODEL 2
REMARK VINA RESULT:      -3.0      1.107      1.561
REMARK  Name = 
REMARK  1 active torsions:
REMARK  status: ('A' for Active; 'I' for Inactive)
REMARK    1  A    between atoms: C_3  and  C_4
REMARK                            x       y       z     vdW  Elec       q    Type
REMARK                         _______ _______ _______ _____ _____    ______ ____
ROOT
ATOM      1  C   UNL     1       6.331   0.580  18.390  0.00  0.00    +0.000 C 
ATOM      2  N   UNL     1       5.856  -0.342  17.648  0.00  0.00    +0.000 NA
ATOM      3  N   UNL     1       5.314   1.125  19.117  0.00  0.00    +0.000 NA
ENDROOT
BRANCH   1   5
ATOM      4  C   UNL     1       7.515   0.834  20.539  0.00  0.00    +0.000 C 
ATOM      5  C   UNL     1       7.550   0.176  19.170  0.00  0.00    +0.000 C 
ENDBRANCH   1   5
TORSDOF 1
ENDMDL
MODEL 3
REMARK VINA RESULT:      -2.8      1.313      2.251
REMARK  Name = 
REMARK  1 active torsions:
REMARK  status: ('A' for Active; 'I' for Inactive)
REMARK    1  A    between atoms: C_3  and  C_4
REMARK                            x       y       z     vdW  Elec       q    Type
REMARK                         _______ _______ _______ _____ _____    ______ ____
ROOT
ATOM      1  C   UNL     1       6.314  -0.386  18.989  0.00  0.00    +0.000 C 
ATOM      2  N   UNL     1       5.768  -1.344  19.629  0.00  0.00    +0.000 NA
ATOM      3  N   UNL     1       5.972  -0.488  17.672  0.00  0.00    +0.000 NA
ENDROOT
BRANCH   1   5
ATOM      4  C   UNL     1       4.792   1.550  19.145  0.00  0.00    +0.000 C 
ATOM      5  C   UNL     1       6.114   0.965  19.614  0.00  0.00    +0.000 C 
ENDBRANCH   1   5
TORSDOF 1
ENDMDL
MODEL 4
REMARK VINA RESULT:      -2.7      1.576      1.972
REMARK  Name = 
REMARK  1 active torsions:
REMARK  status: ('A' for Active; 'I' for Inactive)
REMARK    1  A    between atoms: C_3  and  C_4
REMARK                            x       y       z     vdW  Elec       q    Type
REMARK                         _______ _______ _______ _____ _____    ______ ____
ROOT
ATOM      1  C   UNL     1       7.149   0.208  19.512  0.00  0.00    +0.000 C 
ATOM      2  N   UNL     1       7.516   0.170  18.292  0.00  0.00    +0.000 NA
ATOM      3  N   UNL     1       6.119  -0.670  19.687  0.00  0.00    +0.000 NA
ENDROOT
BRANCH   1   5
ATOM      4  C   UNL     1       7.944  -0.965  21.532  0.00  0.00    +0.000 C 
ATOM      5  C   UNL     1       8.276   0.099  20.499  0.00  0.00    +0.000 C 
ENDBRANCH   1   5
TORSDOF 1
ENDMDL
MODEL 5
REMARK VINA RESULT:      -2.7      1.927      2.415
REMARK  Name = 
REMARK  1 active torsions:
REMARK  status: ('A' for Active; 'I' for Inactive)
REMARK    1  A    between atoms: C_3  and  C_4
REMARK                            x       y       z     vdW  Elec       q    Type
REMARK                         _______ _______ _______ _____ _____    ______ ____
ROOT
ATOM      1  C   UNL     1       7.004  -0.064  19.398  0.00  0.00    +0.000 C 
ATOM      2  N   UNL     1       7.662   0.084  18.316  0.00  0.00    +0.000 NA
ATOM      3  N   UNL     1       7.534   0.759  20.349  0.00  0.00    +0.000 NA
ENDROOT
BRANCH   1   5
ATOM      4  C   UNL     1       5.096   1.455  19.024  0.00  0.00    +0.000 C 
ATOM      5  C   UNL     1       5.514   0.008  19.228  0.00  0.00    +0.000 C 
ENDBRANCH   1   5
TORSDOF 1
ENDMDL
MODEL 6
REMARK VINA RESULT:      -2.6      4.190      4.984
REMARK  Name = 
REMARK  1 active torsions:
REMARK  status: ('A' for Active; 'I' for Inactive)
REMARK    1  A    between atoms: C_3  and  C_4
REMARK                            x       y       z     vdW  Elec       q    Type
REMARK                         _______ _______ _______ _____ _____    ______ ____
ROOT
ATOM      1  C   UNL     1       9.389  -1.473  21.849  0.00  0.00    +0.000 C 
ATOM      2  N   UNL     1      10.514  -1.748  22.385  0.00  0.00    +0.000 NA
ATOM      3  N   UNL     1       8.393  -1.910  22.673  0.00  0.00    +0.000 NA
ENDROOT
BRANCH   1   5
ATOM      4  C   UNL     1       8.184   0.027  20.305  0.00  0.00    +0.000 C 
ATOM      5  C   UNL     1       9.267  -0.055  21.369  0.00  0.00    +0.000 C 
ENDBRANCH   1   5
TORSDOF 1
ENDMDL
MODEL 7
REMARK VINA RESULT:      -2.5      3.448      3.854
REMARK  Name = 
REMARK  1 active torsions:
REMARK  status: ('A' for Active; 'I' for Inactive)
REMARK    1  A    between atoms: C_3  and  C_4
REMARK                            x       y       z     vdW  Elec       q    Type
REMARK                         _______ _______ _______ _____ _____    ______ ____
ROOT
ATOM      1  C   UNL     1       8.928  -0.210  21.012  0.00  0.00    +0.000 C 
ATOM      2  N   UNL     1       9.758   0.485  21.688  0.00  0.00    +0.000 NA
ATOM      3  N   UNL     1       8.610  -1.328  21.726  0.00  0.00    +0.000 NA
ENDROOT
BRANCH   1   5
ATOM      4  C   UNL     1       7.495   0.147  19.037  0.00  0.00    +0.000 C 
ATOM      5  C   UNL     1       7.768   0.574  20.470  0.00  0.00    +0.000 C 
ENDBRANCH   1   5
TORSDOF 1
ENDMDL
MODEL 8
REMARK VINA RESULT:      -2.5      6.323      6.694
REMARK  Name = 
REMARK  1 active torsions:
REMARK  status: ('A' for Active; 'I' for Inactive)
REMARK    1  A    between atoms: C_3  and  C_4
REMARK                            x       y       z     vdW  Elec       q    Type
REMARK                         _______ _______ _______ _____ _____    ______ ____
ROOT
ATOM      1  C   UNL     1       9.773  -1.928  23.493  0.00  0.00    +0.000 C 
ATOM      2  N   UNL     1      10.516  -1.786  22.466  0.00  0.00    +0.000 NA
ATOM      3  N   UNL     1       9.971  -3.177  24.007  0.00  0.00    +0.000 NA
ENDROOT
BRANCH   1   5
ATOM      4  C   UNL     1      10.639   0.353  23.859  0.00  0.00    +0.000 C 
ATOM      5  C   UNL     1       9.856  -0.795  24.475  0.00  0.00    +0.000 C 
ENDBRANCH   1   5
TORSDOF 1
ENDMDL
MODEL 9
REMARK VINA RESULT:      -2.5      9.346      9.936
REMARK  Name = 
REMARK  1 active torsions:
REMARK  status: ('A' for Active; 'I' for Inactive)
REMARK    1  A    between atoms: C_3  and  C_4
REMARK                            x       y       z     vdW  Elec       q    Type
REMARK                         _______ _______ _______ _____ _____    ______ ____
ROOT
ATOM      1  C   UNL     1       7.489  -4.972  26.805  0.00  0.00    +0.000 C 
ATOM      2  N   UNL     1       6.897  -5.403  25.760  0.00  0.00    +0.000 NA
ATOM      3  N   UNL     1       7.306  -5.872  27.814  0.00  0.00    +0.000 NA
ENDROOT
BRANCH   1   5
ATOM      4  C   UNL     1       9.458  -5.227  25.341  0.00  0.00    +0.000 C 
ATOM      5  C   UNL     1       8.904  -4.528  26.572  0.00  0.00    +0.000 C 
ENDBRANCH   1   5
TORSDOF 1
ENDMDL
