MODEL 1
REMARK VINA RESULT:      -6.3      0.000      0.000
REMARK  Name = 
REMARK  3 active torsions:
REMARK  status: ('A' for Active; 'I' for Inactive)
REMARK    1  A    between atoms: N_4  and  C_5
REMARK    2  A    between atoms: C_8  and  O_9
REMARK    3  A    between atoms: O_9  and  C_10
REMARK                            x       y       z     vdW  Elec       q    Type
REMARK                         _______ _______ _______ _____ _____    ______ ____
ROOT
ATOM      1  C   UNL     1       7.899   0.731  21.348  0.00  0.00    +0.000 A 
ATOM      2  C   UNL     1       7.064   0.475  22.759  0.00  0.00    +0.000 A 
ATOM      3  C   UNL     1       8.058   0.222  23.844  0.00  0.00    +0.000 A 
ATOM      4  C   UNL     1       9.403  -0.448  23.878  0.00  0.00    +0.000 A 
ATOM      5  C   UNL     1      10.239  -0.046  22.634  0.00  0.00    +0.000 A 
ATOM      6  C   UNL     1       9.332   0.478  21.537  0.00  0.00    +0.000 A 
ENDROOT
BRANCH   1  10
ATOM      7  C   UNL     1       5.630   0.867  18.990  0.00  0.00    +0.000 C 
ATOM      8  C   UNL     1       7.096   0.451  19.265  0.00  0.00    +0.000 C 
ATOM      9  O   UNL     1       7.707  -0.025  18.294  0.00  0.00    +0.000 OA
ATOM     10  N   UNL     1       7.261  -0.113  20.471  0.00  0.00    +0.000 NA
ENDBRANCH   1  10
BRANCH   4  11
ATOM     11  O   UNL     1       9.445  -1.624  24.491  0.00  0.00    +0.000 OA
BRANCH  11  12
ATOM     12  C   UNL     1       9.585  -2.674  23.701  0.00  0.00    +0.000 A 
ATOM     13  N   UNL     1       9.833  -3.804  24.529  0.00  0.00    +0.000 NA
ATOM     14  C   UNL     1       8.788  -4.528  24.637  0.00  0.00    +0.000 A 
ATOM     15  C   UNL     1       7.480  -4.802  24.005  0.00  0.00    +0.000 A 
ATOM     16  C   UNL     1       7.391  -3.603  22.945  0.00  0.00    +0.000 A 
ATOM     17  N   UNL     1       8.533  -2.977  23.080  0.00  0.00    +0.000 NA
ENDBRANCH  11  12
ENDBRANCH   4  11
TORSDOF 3
ENDMDL
MODEL 2
REMARK VINA RESULT:      -5.8      1.914      2.309
REMARK  Name = 
REMARK  3 active torsions:
REMARK  status: ('A' for Active; 'I' for Inactive)
REMARK    1  A    between atoms: N_4  and  C_5
REMARK    2  A    between atoms: C_8  and  O_9
REMARK    3  A    between atoms: O_9  and  C_10
REMARK                            x       y       z     vdW  Elec       q    Type
REMARK                         _______ _______ _______ _____ _____    ______ ____
ROOT
ATOM      1  C   UNL     1       9.717   1.358  22.080  0.00  0.00    +0.000 A 
ATOM      2  C   UNL     1      10.115   1.412  23.690  0.00  0.00    +0.000 A 
ATOM      3  C   UNL     1      10.513   0.036  24.113  0.00  0.00    +0.000 A 
ATOM      4  C   UNL     1      10.065  -1.340  23.710  0.00  0.00    +0.000 A 
ATOM      5  C   UNL     1       9.876  -1.417  22.172  0.00  0.00    +0.000 A 
ATOM      6  C   UNL     1       9.714  -0.026  21.590  0.00  0.00    +0.000 A 
ENDROOT
BRANCH   1  10
ATOM      7  C   UNL     1       6.820   1.103  20.574  0.00  0.00    +0.000 C 
ATOM      8  C   UNL     1       7.482   1.126  21.973  0.00  0.00    +0.000 C 
ATOM      9  O   UNL     1       6.702   1.027  22.935  0.00  0.00    +0.000 OA
ATOM     10  N   UNL     1       8.500   1.996  22.056  0.00  0.00    +0.000 NA
ENDBRANCH   1  10
BRANCH   4  11
ATOM     11  O   UNL     1       9.350  -2.000  24.611  0.00  0.00    +0.000 OA
BRANCH  11  12
ATOM     12  C   UNL     1       8.866  -3.164  24.214  0.00  0.00    +0.000 A 
ATOM     13  N   UNL     1       9.804  -4.168  24.587  0.00  0.00    +0.000 NA
ATOM     14  C   UNL     1       9.402  -4.806  25.615  0.00  0.00    +0.000 A 
ATOM     15  C   UNL     1       8.196  -5.098  26.418  0.00  0.00    +0.000 A 
ATOM     16  C   UNL     1       7.144  -4.071  25.780  0.00  0.00    +0.000 A 
ATOM     17  N   UNL     1       7.810  -3.497  24.811  0.00  0.00    +0.000 NA
ENDBRANCH  11  12
ENDBRANCH   4  11
TORSDOF 3
ENDMDL
MODEL 3
REMARK VINA RESULT:      -5.6      2.926      6.780
REMARK  Name = 
REMARK  3 active torsions:
REMARK  status: ('A' for Active; 'I' for Inactive)
REMARK    1  A    between atoms: N_4  and  C_5
REMARK    2  A    between atoms: C_8  and  O_9
REMARK    3  A    between atoms: O_9  and  C_10
REMARK                            x       y       z     vdW  Elec       q    Type
REMARK                         _______ _______ _______ _____ _____    ______ ____
ROOT
ATOM      1  C   UNL     1       7.367  -5.342  26.171  0.00  0.00    +0.000 A 
ATOM      2  C   UNL     1       6.450  -4.279  25.285  0.00  0.00    +0.000 A 
ATOM      3  C   UNL     1       7.327  -3.675  24.238  0.00  0.00    +0.000 A 
ATOM      4  C   UNL     1       8.783  -3.304  24.197  0.00  0.00    +0.000 A 
ATOM      5  C   UNL     1       9.641  -4.407  24.871  0.00  0.00    +0.000 A 
ATOM      6  C   UNL     1       8.781  -5.261  25.782  0.00  0.00    +0.000 A 
ENDROOT
BRANCH   1  10
ATOM      7  C   UNL     1       4.863  -5.411  28.280  0.00  0.00    +0.000 C 
ATOM      8  C   UNL     1       6.328  -5.875  28.093  0.00  0.00    +0.000 C 
ATOM      9  O   UNL     1       6.815  -6.502  29.048  0.00  0.00    +0.000 OA
ATOM     10  N   UNL     1       7.087  -4.967  27.463  0.00  0.00    +0.000 NA
ENDBRANCH   1  10
BRANCH   4  11
ATOM     11  O   UNL     1       9.046  -2.004  24.208  0.00  0.00    +0.000 OA
BRANCH  11  12
ATOM     12  C   UNL     1      10.099  -1.629  23.501  0.00  0.00    +0.000 A 
ATOM     13  N   UNL     1       9.775  -1.799  22.126  0.00  0.00    +0.000 NA
ATOM     14  C   UNL     1       9.511  -0.678  21.579  0.00  0.00    +0.000 A 
ATOM     15  C   UNL     1       9.681   0.781  21.751  0.00  0.00    +0.000 A 
ATOM     16  C   UNL     1      10.249   0.852  23.247  0.00  0.00    +0.000 A 
ATOM     17  N   UNL     1      10.359  -0.402  23.604  0.00  0.00    +0.000 NA
ENDBRANCH  11  12
ENDBRANCH   4  11
TORSDOF 3
ENDMDL
MODEL 4
REMARK VINA RESULT:      -5.6      2.607      5.192
REMARK  Name = 
REMARK  3 active torsions:
REMARK  status: ('A' for Active; 'I' for Inactive)
REMARK    1  A    between atoms: N_4  and  C_5
REMARK    2  A    between atoms: C_8  and  O_9
REMARK    3  A    between atoms: O_9  and  C_10
REMARK                            x       y       z     vdW  Elec       q    Type
REMARK                         _______ _______ _______ _____ _____    ______ ____
ROOT
ATOM      1  C   UNL     1       9.726  -0.163  24.481  0.00  0.00    +0.000 A 
ATOM      2  C   UNL     1       8.207  -0.831  24.502  0.00  0.00    +0.000 A 
ATOM      3  C   UNL     1       8.013  -1.575  23.222  0.00  0.00    +0.000 A 
ATOM      4  C   UNL     1       8.490  -1.354  21.814  0.00  0.00    +0.000 A 
ATOM      5  C   UNL     1       9.976  -0.905  21.812  0.00  0.00    +0.000 A 
ATOM      6  C   UNL     1      10.362  -0.356  23.172  0.00  0.00    +0.000 A 
ENDROOT
BRANCH   1  10
ATOM      7  C   UNL     1      10.580   2.855  23.539  0.00  0.00    +0.000 C 
ATOM      8  C   UNL     1       9.355   1.933  23.755  0.00  0.00    +0.000 C 
ATOM      9  O   UNL     1       8.250   2.449  23.516  0.00  0.00    +0.000 OA
ATOM     10  N   UNL     1       9.479   1.143  24.831  0.00  0.00    +0.000 NA
ENDBRANCH   1  10
BRANCH   4  11
ATOM     11  O   UNL     1       7.564  -0.969  20.946  0.00  0.00    +0.000 OA
BRANCH  11  12
ATOM     12  C   UNL     1       7.799   0.178  20.334  0.00  0.00    +0.000 A 
ATOM     13  N   UNL     1       7.612  -0.033  18.939  0.00  0.00    +0.000 NA
ATOM     14  C   UNL     1       6.497   0.449  18.551  0.00  0.00    +0.000 A 
ATOM     15  C   UNL     1       5.432   1.398  18.937  0.00  0.00    +0.000 A 
ATOM     16  C   UNL     1       5.852   1.740  20.445  0.00  0.00    +0.000 A 
ATOM     17  N   UNL     1       6.967   1.078  20.620  0.00  0.00    +0.000 NA
ENDBRANCH  11  12
ENDBRANCH   4  11
TORSDOF 3
ENDMDL
MODEL 5
REMARK VINA RESULT:      -5.5      2.611      3.837
REMARK  Name = 
REMARK  3 active torsions:
REMARK  status: ('A' for Active; 'I' for Inactive)
REMARK    1  A    between atoms: N_4  and  C_5
REMARK    2  A    between atoms: C_8  and  O_9
REMARK    3  A    between atoms: O_9  and  C_10
REMARK                            x       y       z     vdW  Elec       q    Type
REMARK                         _______ _______ _______ _____ _____    ______ ____
ROOT
ATOM      1  C   UNL     1       9.070  -1.553  22.369  0.00  0.00    +0.000 A 
ATOM      2  C   UNL     1       9.901  -1.815  23.782  0.00  0.00    +0.000 A 
ATOM      3  C   UNL     1       9.495  -3.149  24.315  0.00  0.00    +0.000 A 
ATOM      4  C   UNL     1       8.209  -3.925  24.290  0.00  0.00    +0.000 A 
ATOM      5  C   UNL     1       7.539  -3.815  22.895  0.00  0.00    +0.000 A 
ATOM      6  C   UNL     1       8.077  -2.611  22.145  0.00  0.00    +0.000 A 
ENDROOT
BRANCH   1  10
ATOM      7  C   UNL     1       9.960   1.571  21.951  0.00  0.00    +0.000 C 
ATOM      8  C   UNL     1       8.879   0.535  21.555  0.00  0.00    +0.000 C 
ATOM      9  O   UNL     1       7.975   0.962  20.818  0.00  0.00    +0.000 OA
ATOM     10  N   UNL     1       8.556  -0.292  22.559  0.00  0.00    +0.000 NA
ENDBRANCH   1  10
BRANCH   4  11
ATOM     11  O   UNL     1       7.571  -4.020  25.449  0.00  0.00    +0.000 OA
BRANCH  11  12
ATOM     12  C   UNL     1       7.578  -5.219  26.007  0.00  0.00    +0.000 A 
ATOM     13  N   UNL     1       7.547  -5.036  27.418  0.00  0.00    +0.000 NA
ATOM     14  C   UNL     1       6.382  -5.268  27.881  0.00  0.00    +0.000 A 
ATOM     15  C   UNL     1       5.100  -5.930  27.557  0.00  0.00    +0.000 A 
ATOM     16  C   UNL     1       5.319  -6.287  26.010  0.00  0.00    +0.000 A 
ATOM     17  N   UNL     1       6.542  -5.890  25.763  0.00  0.00    +0.000 NA
ENDBRANCH  11  12
ENDBRANCH   4  11
TORSDOF 3
ENDMDL
MODEL 6
REMARK VINA RESULT:      -5.5      2.514      3.382
REMARK  Name = 
REMARK  3 active torsions:
REMARK  status: ('A' for Active; 'I' for Inactive)
REMARK    1  A    between atoms: N_4  and  C_5
REMARK    2  A    between atoms: C_8  and  O_9
REMARK    3  A    between atoms: O_9  and  C_10
REMARK                            x       y       z     vdW  Elec       q    Type
REMARK                         _______ _______ _______ _____ _____    ______ ____
ROOT
ATOM      1  C   UNL     1       8.826   1.125  21.848  0.00  0.00    +0.000 A 
ATOM      2  C   UNL     1       9.435  -0.307  21.271  0.00  0.00    +0.000 A 
ATOM      3  C   UNL     1       8.760  -1.422  22.001  0.00  0.00    +0.000 A 
ATOM      4  C   UNL     1       8.243  -1.576  23.403  0.00  0.00    +0.000 A 
ATOM      5  C   UNL     1       7.514  -0.283  23.855  0.00  0.00    +0.000 A 
ATOM      6  C   UNL     1       7.941   0.891  22.996  0.00  0.00    +0.000 A 
ENDROOT
BRANCH   1  10
ATOM      7  C   UNL     1       9.791   3.619  23.739  0.00  0.00    +0.000 C 
ATOM      8  C   UNL     1      10.078   2.131  23.423  0.00  0.00    +0.000 C 
ATOM      9  O   UNL     1      11.005   1.617  24.071  0.00  0.00    +0.000 OA
ATOM     10  N   UNL     1       9.966   1.843  22.118  0.00  0.00    +0.000 NA
ENDBRANCH   1  10
BRANCH   4  11
ATOM     11  O   UNL     1       8.942  -2.385  24.188  0.00  0.00    +0.000 OA
BRANCH  11  12
ATOM     12  C   UNL     1       8.698  -3.676  24.037  0.00  0.00    +0.000 A 
ATOM     13  N   UNL     1       9.740  -4.389  24.693  0.00  0.00    +0.000 NA
ATOM     14  C   UNL     1       9.340  -4.854  25.811  0.00  0.00    +0.000 A 
ATOM     15  C   UNL     1       8.118  -5.181  26.576  0.00  0.00    +0.000 A 
ATOM     16  C   UNL     1       6.988  -4.524  25.650  0.00  0.00    +0.000 A 
ATOM     17  N   UNL     1       7.652  -4.059  24.622  0.00  0.00    +0.000 NA
ENDBRANCH  11  12
ENDBRANCH   4  11
TORSDOF 3
ENDMDL
MODEL 7
REMARK VINA RESULT:      -5.5      2.648      3.885
REMARK  Name = 
REMARK  3 active torsions:
REMARK  status: ('A' for Active; 'I' for Inactive)
REMARK    1  A    between atoms: N_4  and  C_5
REMARK    2  A    between atoms: C_8  and  O_9
REMARK    3  A    between atoms: O_9  and  C_10
REMARK                            x       y       z     vdW  Elec       q    Type
REMARK                         _______ _______ _______ _____ _____    ______ ____
ROOT
ATOM      1  C   UNL     1       8.352   1.149  21.716  0.00  0.00    +0.000 A 
ATOM      2  C   UNL     1       8.084   0.145  20.421  0.00  0.00    +0.000 A 
ATOM      3  C   UNL     1       7.062  -0.866  20.827  0.00  0.00    +0.000 A 
ATOM      4  C   UNL     1       6.747  -1.555  22.124  0.00  0.00    +0.000 A 
ATOM      5  C   UNL     1       6.825  -0.549  23.303  0.00  0.00    +0.000 A 
ATOM      6  C   UNL     1       7.645   0.664  22.907  0.00  0.00    +0.000 A 
ENDROOT
BRANCH   1  10
ATOM      7  C   UNL     1      10.715   2.661  23.406  0.00  0.00    +0.000 C 
ATOM      8  C   UNL     1      10.141   1.262  23.074  0.00  0.00    +0.000 C 
ATOM      9  O   UNL     1      10.742   0.303  23.587  0.00  0.00    +0.000 OA
ATOM     10  N   UNL     1       9.723   1.156  21.804  0.00  0.00    +0.000 NA
ENDBRANCH   1  10
BRANCH   4  11
ATOM     11  O   UNL     1       7.061  -2.842  22.184  0.00  0.00    +0.000 OA
BRANCH  11  12
ATOM     12  C   UNL     1       6.186  -3.668  21.636  0.00  0.00    +0.000 A 
ATOM     13  N   UNL     1       6.763  -4.969  21.642  0.00  0.00    +0.000 NA
ATOM     14  C   UNL     1       6.256  -5.687  22.567  0.00  0.00    +0.000 A 
ATOM     15  C   UNL     1       5.092  -5.784  23.472  0.00  0.00    +0.000 A 
ATOM     16  C   UNL     1       4.394  -4.362  23.233  0.00  0.00    +0.000 A 
ATOM     17  N   UNL     1       5.132  -3.798  22.310  0.00  0.00    +0.000 NA
ENDBRANCH  11  12
ENDBRANCH   4  11
TORSDOF 3
ENDMDL
MODEL 8
REMARK VINA RESULT:      -5.4      2.606      3.284
REMARK  Name = 
REMARK  3 active torsions:
REMARK  status: ('A' for Active; 'I' for Inactive)
REMARK    1  A    between atoms: N_4  and  C_5
REMARK    2  A    between atoms: C_8  and  O_9
REMARK    3  A    between atoms: O_9  and  C_10
REMARK                            x       y       z     vdW  Elec       q    Type
REMARK                         _______ _______ _______ _____ _____    ______ ____
ROOT
ATOM      1  C   UNL     1       9.698   1.534  22.740  0.00  0.00    +0.000 A 
ATOM      2  C   UNL     1      10.419   0.688  23.973  0.00  0.00    +0.000 A 
ATOM      3  C   UNL     1      10.537  -0.738  23.546  0.00  0.00    +0.000 A 
ATOM      4  C   UNL     1       9.684  -1.637  22.696  0.00  0.00    +0.000 A 
ATOM      5  C   UNL     1       9.170  -0.872  21.448  0.00  0.00    +0.000 A 
ATOM      6  C   UNL     1       9.247   0.625  21.679  0.00  0.00    +0.000 A 
ENDROOT
BRANCH   1  10
ATOM      7  C   UNL     1       9.104   4.542  23.890  0.00  0.00    +0.000 C 
ATOM      8  C   UNL     1       8.558   3.464  22.923  0.00  0.00    +0.000 C 
ATOM      9  O   UNL     1       7.506   3.761  22.332  0.00  0.00    +0.000 OA
ATOM     10  N   UNL     1       8.701   2.217  23.395  0.00  0.00    +0.000 NA
ENDBRANCH   1  10
BRANCH   4  11
ATOM     11  O   UNL     1       9.028  -2.590  23.344  0.00  0.00    +0.000 OA
BRANCH  11  12
ATOM     12  C   UNL     1       9.540  -2.942  24.511  0.00  0.00    +0.000 A 
ATOM     13  N   UNL     1       8.582  -2.624  25.513  0.00  0.00    +0.000 NA
ATOM     14  C   UNL     1       7.977  -3.673  25.915  0.00  0.00    +0.000 A 
ATOM     15  C   UNL     1       8.079  -5.147  25.943  0.00  0.00    +0.000 A 
ATOM     16  C   UNL     1       9.316  -5.391  24.955  0.00  0.00    +0.000 A 
ATOM     17  N   UNL     1       9.705  -4.184  24.630  0.00  0.00    +0.000 NA
ENDBRANCH  11  12
ENDBRANCH   4  11
TORSDOF 3
ENDMDL
MODEL 9
REMARK VINA RESULT:      -5.4      2.675      6.026
REMARK  Name = 
REMARK  3 active torsions:
REMARK  status: ('A' for Active; 'I' for Inactive)
REMARK    1  A    between atoms: N_4  and  C_5
REMARK    2  A    between atoms: C_8  and  O_9
REMARK    3  A    between atoms: O_9  and  C_10
REMARK                            x       y       z     vdW  Elec       q    Type
REMARK                         _______ _______ _______ _____ _____    ______ ____
ROOT
ATOM      1  C   UNL     1       8.117  -5.027  26.509  0.00  0.00    +0.000 A 
ATOM      2  C   UNL     1       9.191  -5.301  25.273  0.00  0.00    +0.000 A 
ATOM      3  C   UNL     1       9.693  -3.977  24.797  0.00  0.00    +0.000 A 
ATOM      4  C   UNL     1       9.070  -2.615  24.684  0.00  0.00    +0.000 A 
ATOM      5  C   UNL     1       8.215  -2.306  25.942  0.00  0.00    +0.000 A 
ATOM      6  C   UNL     1       7.854  -3.590  26.662  0.00  0.00    +0.000 A 
ENDROOT
BRANCH   1  10
ATOM      7  C   UNL     1       4.848  -4.831  26.468  0.00  0.00    +0.000 C 
ATOM      8  C   UNL     1       6.080  -5.047  25.555  0.00  0.00    +0.000 C 
ATOM      9  O   UNL     1       5.827  -5.231  24.353  0.00  0.00    +0.000 OA
ATOM     10  N   UNL     1       7.036  -5.788  26.134  0.00  0.00    +0.000 NA
ENDBRANCH   1  10
BRANCH   4  11
ATOM     11  O   UNL     1       8.810  -2.201  23.451  0.00  0.00    +0.000 OA
BRANCH  11  12
ATOM     12  C   UNL     1       9.849  -1.742  22.773  0.00  0.00    +0.000 A 
ATOM     13  N   UNL     1       9.381  -1.343  21.490  0.00  0.00    +0.000 NA
ATOM     14  C   UNL     1       9.281  -0.074  21.416  0.00  0.00    +0.000 A 
ATOM     15  C   UNL     1       9.731   1.178  22.061  0.00  0.00    +0.000 A 
ATOM     16  C   UNL     1      10.429   0.610  23.386  0.00  0.00    +0.000 A 
ATOM     17  N   UNL     1      10.338  -0.690  23.260  0.00  0.00    +0.000 NA
ENDBRANCH  11  12
ENDBRANCH   4  11
TORSDOF 3
ENDMDL
