MODEL 1
REMARK VINA RESULT:      -6.2      0.000      0.000
REMARK  Name = 
REMARK  3 active torsions:
REMARK  status: ('A' for Active; 'I' for Inactive)
REMARK    1  A    between atoms: N_2  and  C_4
REMARK    2  A    between atoms: C_9  and  N_10
REMARK    3  A    between atoms: C_16  and  C_18
REMARK                            x       y       z     vdW  Elec       q    Type
REMARK                         _______ _______ _______ _____ _____    ______ ____
ROOT
ATOM      1  N   UNL     1       8.345  -0.730  24.581  0.00  0.00    +0.000 N 
ATOM      2  C   UNL     1       6.961  -0.672  24.215  0.00  0.00    +0.000 C 
ATOM      3  C   UNL     1       6.424  -2.083  23.994  0.00  0.00    +0.000 C 
ATOM      4  N   UNL     1       7.315  -3.036  24.625  0.00  0.00    +0.000 N 
ATOM      5  C   UNL     1       7.940  -2.715  25.898  0.00  0.00    +0.000 C 
ATOM      6  C   UNL     1       8.827  -1.483  25.702  0.00  0.00    +0.000 C 
ATOM      7  C   UNL     1       7.750  -4.108  23.926  0.00  0.00    +0.000 C 
ATOM      8  O   UNL     1       8.852  -4.576  24.137  0.00  0.00    +0.000 OA
ENDROOT
BRANCH   1  14
ATOM      9  C   UNL     1       8.700   0.036  22.318  0.00  0.00    +0.000 A 
ATOM     10  C   UNL     1       9.074   1.596  21.879  0.00  0.00    +0.000 A 
ATOM     11  C   UNL     1      10.100   2.104  22.840  0.00  0.00    +0.000 A 
ATOM     12  C   UNL     1      10.744   1.698  24.091  0.00  0.00    +0.000 A 
ATOM     13  C   UNL     1      10.467   0.210  24.461  0.00  0.00    +0.000 A 
ATOM     14  C   UNL     1       9.298  -0.307  23.606  0.00  0.00    +0.000 A 
BRANCH   9  16
ATOM     15  O   UNL     1       9.517  -1.774  21.544  0.00  0.00    +0.000 OA
ATOM     16  N   UNL     1       9.264  -0.575  21.237  0.00  0.00    +0.000 N 
ATOM     17  O   UNL     1       8.580  -0.401  20.312  0.00  0.00    +0.000 OA
ENDBRANCH   9  16
ENDBRANCH   1  14
BRANCH   7  18
ATOM     18  C   UNL     1       6.669  -4.919  23.241  0.00  0.00    +0.000 C 
ATOM     19 CL   UNL     1       7.360  -5.761  21.830  0.00  0.00    +0.000 Cl
ENDBRANCH   7  18
TORSDOF 3
ENDMDL
MODEL 2
REMARK VINA RESULT:      -5.9      2.242      2.444
REMARK  Name = 
REMARK  3 active torsions:
REMARK  status: ('A' for Active; 'I' for Inactive)
REMARK    1  A    between atoms: N_2  and  C_4
REMARK    2  A    between atoms: C_9  and  N_10
REMARK    3  A    between atoms: C_16  and  C_18
REMARK                            x       y       z     vdW  Elec       q    Type
REMARK                         _______ _______ _______ _____ _____    ______ ____
ROOT
ATOM      1  N   UNL     1       7.778  -1.990  23.311  0.00  0.00    +0.000 N 
ATOM      2  C   UNL     1       6.458  -1.826  23.845  0.00  0.00    +0.000 C 
ATOM      3  C   UNL     1       5.693  -3.143  23.746  0.00  0.00    +0.000 C 
ATOM      4  N   UNL     1       6.634  -4.228  23.560  0.00  0.00    +0.000 N 
ATOM      5  C   UNL     1       7.912  -4.211  24.254  0.00  0.00    +0.000 C 
ATOM      6  C   UNL     1       8.697  -2.982  23.786  0.00  0.00    +0.000 C 
ATOM      7  C   UNL     1       6.432  -5.126  22.569  0.00  0.00    +0.000 C 
ATOM      8  O   UNL     1       7.374  -5.650  22.009  0.00  0.00    +0.000 OA
ENDROOT
BRANCH   1  14
ATOM      9  C   UNL     1       6.945  -0.579  21.536  0.00  0.00    +0.000 A 
ATOM     10  C   UNL     1       7.416   0.991  21.256  0.00  0.00    +0.000 A 
ATOM     11  C   UNL     1       8.902   1.053  21.410  0.00  0.00    +0.000 A 
ATOM     12  C   UNL     1      10.007   0.202  21.856  0.00  0.00    +0.000 A 
ATOM     13  C   UNL     1       9.590  -1.289  22.036  0.00  0.00    +0.000 A 
ATOM     14  C   UNL     1       8.055  -1.378  22.052  0.00  0.00    +0.000 A 
BRANCH   9  16
ATOM     15  O   UNL     1       5.846  -1.900  20.276  0.00  0.00    +0.000 OA
ATOM     16  N   UNL     1       6.571  -0.865  20.257  0.00  0.00    +0.000 N 
ATOM     17  O   UNL     1       6.110   0.091  19.781  0.00  0.00    +0.000 OA
ENDBRANCH   9  16
ENDBRANCH   1  14
BRANCH   7  18
ATOM     18  C   UNL     1       5.049  -5.744  22.526  0.00  0.00    +0.000 C 
ATOM     19 CL   UNL     1       4.769  -6.684  24.015  0.00  0.00    +0.000 Cl
ENDBRANCH   7  18
TORSDOF 3
ENDMDL
MODEL 3
REMARK VINA RESULT:      -5.9      2.775      5.950
REMARK  Name = 
REMARK  3 active torsions:
REMARK  status: ('A' for Active; 'I' for Inactive)
REMARK    1  A    between atoms: N_2  and  C_4
REMARK    2  A    between atoms: C_9  and  N_10
REMARK    3  A    between atoms: C_16  and  C_18
REMARK                            x       y       z     vdW  Elec       q    Type
REMARK                         _______ _______ _______ _____ _____    ______ ____
ROOT
ATOM      1  N   UNL     1       6.579  -3.688  23.575  0.00  0.00    +0.000 N 
ATOM      2  C   UNL     1       5.848  -2.652  24.243  0.00  0.00    +0.000 C 
ATOM      3  C   UNL     1       6.768  -1.466  24.521  0.00  0.00    +0.000 C 
ATOM      4  N   UNL     1       7.935  -1.559  23.669  0.00  0.00    +0.000 N 
ATOM      5  C   UNL     1       7.804  -2.039  22.303  0.00  0.00    +0.000 C 
ATOM      6  C   UNL     1       7.286  -3.479  22.346  0.00  0.00    +0.000 C 
ATOM      7  C   UNL     1       9.169  -1.432  24.209  0.00  0.00    +0.000 C 
ATOM      8  O   UNL     1      10.113  -2.035  23.739  0.00  0.00    +0.000 OA
ENDROOT
BRANCH   1  14
ATOM      9  C   UNL     1       7.743  -4.596  25.487  0.00  0.00    +0.000 A 
ATOM     10  C   UNL     1       7.022  -5.115  26.894  0.00  0.00    +0.000 A 
ATOM     11  C   UNL     1       5.806  -5.898  26.517  0.00  0.00    +0.000 A 
ATOM     12  C   UNL     1       5.015  -6.214  25.326  0.00  0.00    +0.000 A 
ATOM     13  C   UNL     1       5.726  -5.808  24.000  0.00  0.00    +0.000 A 
ATOM     14  C   UNL     1       6.891  -4.859  24.330  0.00  0.00    +0.000 A 
BRANCH   9  16
ATOM     15  O   UNL     1       9.305  -5.569  24.412  0.00  0.00    +0.000 OA
ATOM     16  N   UNL     1       8.855  -5.380  25.578  0.00  0.00    +0.000 N 
ATOM     17  O   UNL     1       9.582  -4.907  26.353  0.00  0.00    +0.000 OA
ENDBRANCH   9  16
ENDBRANCH   1  14
BRANCH   7  18
ATOM     18  C   UNL     1       9.371  -0.212  25.084  0.00  0.00    +0.000 C 
ATOM     19 CL   UNL     1      10.963   0.512  24.737  0.00  0.00    +0.000 Cl
ENDBRANCH   7  18
TORSDOF 3
ENDMDL
MODEL 4
REMARK VINA RESULT:      -5.7      2.322      5.533
REMARK  Name = 
REMARK  3 active torsions:
REMARK  status: ('A' for Active; 'I' for Inactive)
REMARK    1  A    between atoms: N_2  and  C_4
REMARK    2  A    between atoms: C_9  and  N_10
REMARK    3  A    between atoms: C_16  and  C_18
REMARK                            x       y       z     vdW  Elec       q    Type
REMARK                         _______ _______ _______ _____ _____    ______ ____
ROOT
ATOM      1  N   UNL     1       6.688  -1.989  22.718  0.00  0.00    +0.000 N 
ATOM      2  C   UNL     1       6.411  -1.182  23.870  0.00  0.00    +0.000 C 
ATOM      3  C   UNL     1       7.406  -0.027  23.944  0.00  0.00    +0.000 C 
ATOM      4  N   UNL     1       8.024   0.154  22.647  0.00  0.00    +0.000 N 
ATOM      5  C   UNL     1       7.237  -0.016  21.435  0.00  0.00    +0.000 C 
ATOM      6  C   UNL     1       6.735  -1.462  21.386  0.00  0.00    +0.000 C 
ATOM      7  C   UNL     1       9.369   0.242  22.554  0.00  0.00    +0.000 C 
ATOM      8  O   UNL     1       9.949  -0.173  21.569  0.00  0.00    +0.000 OA
ENDROOT
BRANCH   1  14
ATOM      9  C   UNL     1       7.789  -3.448  24.298  0.00  0.00    +0.000 A 
ATOM     10  C   UNL     1       7.086  -4.755  25.050  0.00  0.00    +0.000 A 
ATOM     11  C   UNL     1       6.288  -5.493  24.024  0.00  0.00    +0.000 A 
ATOM     12  C   UNL     1       5.844  -5.332  22.638  0.00  0.00    +0.000 A 
ATOM     13  C   UNL     1       6.565  -4.162  21.903  0.00  0.00    +0.000 A 
ATOM     14  C   UNL     1       7.266  -3.275  22.945  0.00  0.00    +0.000 A 
BRANCH   9  16
ATOM     15  O   UNL     1       9.828  -3.025  23.845  0.00  0.00    +0.000 OA
ATOM     16  N   UNL     1       9.075  -3.894  24.369  0.00  0.00    +0.000 N 
ATOM     17  O   UNL     1       9.305  -4.195  25.469  0.00  0.00    +0.000 OA
ENDBRANCH   9  16
ENDBRANCH   1  14
BRANCH   7  18
ATOM     18  C   UNL     1      10.020   1.247  23.483  0.00  0.00    +0.000 C 
ATOM     19 CL   UNL     1      10.862   0.385  24.797  0.00  0.00    +0.000 Cl
ENDBRANCH   7  18
TORSDOF 3
ENDMDL
MODEL 5
REMARK VINA RESULT:      -5.7      3.134      5.318
REMARK  Name = 
REMARK  3 active torsions:
REMARK  status: ('A' for Active; 'I' for Inactive)
REMARK    1  A    between atoms: N_2  and  C_4
REMARK    2  A    between atoms: C_9  and  N_10
REMARK    3  A    between atoms: C_16  and  C_18
REMARK                            x       y       z     vdW  Elec       q    Type
REMARK                         _______ _______ _______ _____ _____    ______ ____
ROOT
ATOM      1  N   UNL     1       8.672  -2.034  22.378  0.00  0.00    +0.000 N 
ATOM      2  C   UNL     1       7.860  -1.012  21.786  0.00  0.00    +0.000 C 
ATOM      3  C   UNL     1       7.873   0.235  22.666  0.00  0.00    +0.000 C 
ATOM      4  N   UNL     1       9.005   0.170  23.567  0.00  0.00    +0.000 N 
ATOM      5  C   UNL     1      10.272  -0.376  23.108  0.00  0.00    +0.000 C 
ATOM      6  C   UNL     1      10.052  -1.840  22.716  0.00  0.00    +0.000 C 
ATOM      7  C   UNL     1       8.821   0.390  24.889  0.00  0.00    +0.000 C 
ATOM      8  O   UNL     1       9.511  -0.179  25.711  0.00  0.00    +0.000 OA
ENDROOT
BRANCH   1  14
ATOM      9  C   UNL     1       8.428  -3.448  24.322  0.00  0.00    +0.000 A 
ATOM     10  C   UNL     1       7.142  -3.417  25.377  0.00  0.00    +0.000 A 
ATOM     11  C   UNL     1       5.891  -3.311  24.564  0.00  0.00    +0.000 A 
ATOM     12  C   UNL     1       5.488  -3.093  23.174  0.00  0.00    +0.000 A 
ATOM     13  C   UNL     1       6.676  -3.207  22.172  0.00  0.00    +0.000 A 
ATOM     14  C   UNL     1       7.997  -3.151  22.957  0.00  0.00    +0.000 A 
BRANCH   9  16
ATOM     15  O   UNL     1       8.436  -5.434  23.549  0.00  0.00    +0.000 OA
ATOM     16  N   UNL     1       8.789  -4.743  24.547  0.00  0.00    +0.000 N 
ATOM     17  O   UNL     1       9.916  -4.771  24.834  0.00  0.00    +0.000 OA
ENDBRANCH   9  16
ENDBRANCH   1  14
BRANCH   7  18
ATOM     18  C   UNL     1       8.067   1.657  25.237  0.00  0.00    +0.000 C 
ATOM     19 CL   UNL     1       8.987   3.074  24.667  0.00  0.00    +0.000 Cl
ENDBRANCH   7  18
TORSDOF 3
ENDMDL
MODEL 6
REMARK VINA RESULT:      -5.7      2.870      5.221
REMARK  Name = 
REMARK  3 active torsions:
REMARK  status: ('A' for Active; 'I' for Inactive)
REMARK    1  A    between atoms: N_2  and  C_4
REMARK    2  A    between atoms: C_9  and  N_10
REMARK    3  A    between atoms: C_16  and  C_18
REMARK                            x       y       z     vdW  Elec       q    Type
REMARK                         _______ _______ _______ _____ _____    ______ ____
ROOT
ATOM      1  N   UNL     1       9.022  -1.952  23.163  0.00  0.00    +0.000 N 
ATOM      2  C   UNL     1       9.359  -1.625  21.809  0.00  0.00    +0.000 C 
ATOM      3  C   UNL     1       9.224  -0.120  21.591  0.00  0.00    +0.000 C 
ATOM      4  N   UNL     1       9.225   0.550  22.875  0.00  0.00    +0.000 N 
ATOM      5  C   UNL     1      10.087   0.072  23.945  0.00  0.00    +0.000 C 
ATOM      6  C   UNL     1       9.669  -1.359  24.297  0.00  0.00    +0.000 C 
ATOM      7  C   UNL     1       8.264   1.457  23.157  0.00  0.00    +0.000 C 
ATOM      8  O   UNL     1       7.867   1.603  24.296  0.00  0.00    +0.000 OA
ENDROOT
BRANCH   1  14
ATOM      9  C   UNL     1       7.379  -3.483  22.272  0.00  0.00    +0.000 A 
ATOM     10  C   UNL     1       7.156  -5.052  22.776  0.00  0.00    +0.000 A 
ATOM     11  C   UNL     1       7.222  -5.062  24.269  0.00  0.00    +0.000 A 
ATOM     12  C   UNL     1       7.552  -4.156  25.371  0.00  0.00    +0.000 A 
ATOM     13  C   UNL     1       7.677  -2.670  24.917  0.00  0.00    +0.000 A 
ATOM     14  C   UNL     1       7.782  -2.624  23.384  0.00  0.00    +0.000 A 
BRANCH   9  16
ATOM     15  O   UNL     1       6.057  -2.131  21.289  0.00  0.00    +0.000 OA
ATOM     16  N   UNL     1       6.112  -3.280  21.813  0.00  0.00    +0.000 N 
ATOM     17  O   UNL     1       5.810  -4.180  21.141  0.00  0.00    +0.000 OA
ENDBRANCH   9  16
ENDBRANCH   1  14
BRANCH   7  18
ATOM     18  C   UNL     1       8.063   2.535  22.111  0.00  0.00    +0.000 C 
ATOM     19 CL   UNL     1       6.389   2.466  21.499  0.00  0.00    +0.000 Cl
ENDBRANCH   7  18
TORSDOF 3
ENDMDL
MODEL 7
REMARK VINA RESULT:      -5.7      2.527      3.412
REMARK  Name = 
REMARK  3 active torsions:
REMARK  status: ('A' for Active; 'I' for Inactive)
REMARK    1  A    between atoms: N_2  and  C_4
REMARK    2  A    between atoms: C_9  and  N_10
REMARK    3  A    between atoms: C_16  and  C_18
REMARK                            x       y       z     vdW  Elec       q    Type
REMARK                         _______ _______ _______ _____ _____    ______ ____
ROOT
ATOM      1  N   UNL     1       8.624  -2.304  22.960  0.00  0.00    +0.000 N 
ATOM      2  C   UNL     1       9.659  -2.653  23.888  0.00  0.00    +0.000 C 
ATOM      3  C   UNL     1       9.054  -3.359  25.098  0.00  0.00    +0.000 C 
ATOM      4  N   UNL     1       7.730  -3.838  24.757  0.00  0.00    +0.000 N 
ATOM      5  C   UNL     1       7.468  -4.374  23.430  0.00  0.00    +0.000 C 
ATOM      6  C   UNL     1       7.714  -3.263  22.405  0.00  0.00    +0.000 C 
ATOM      7  C   UNL     1       6.690  -3.570  25.578  0.00  0.00    +0.000 C 
ATOM      8  O   UNL     1       5.572  -3.416  25.128  0.00  0.00    +0.000 OA
ENDROOT
BRANCH   1  14
ATOM      9  C   UNL     1       9.392  -0.020  23.139  0.00  0.00    +0.000 A 
ATOM     10  C   UNL     1       9.680   0.999  21.857  0.00  0.00    +0.000 A 
ATOM     11  C   UNL     1       8.560   0.829  20.882  0.00  0.00    +0.000 A 
ATOM     12  C   UNL     1       7.401  -0.039  20.665  0.00  0.00    +0.000 A 
ATOM     13  C   UNL     1       7.075  -0.935  21.898  0.00  0.00    +0.000 A 
ATOM     14  C   UNL     1       8.278  -0.923  22.855  0.00  0.00    +0.000 A 
BRANCH   9  16
ATOM     15  O   UNL     1       8.227   0.529  24.837  0.00  0.00    +0.000 OA
ATOM     16  N   UNL     1       9.131   0.950  24.061  0.00  0.00    +0.000 N 
ATOM     17  O   UNL     1      10.134   1.278  24.550  0.00  0.00    +0.000 OA
ENDBRANCH   9  16
ENDBRANCH   1  14
BRANCH   7  18
ATOM     18  C   UNL     1       6.909  -3.915  27.037  0.00  0.00    +0.000 C 
ATOM     19 CL   UNL     1       7.237  -5.661  27.194  0.00  0.00    +0.000 Cl
ENDBRANCH   7  18
TORSDOF 3
ENDMDL
MODEL 8
REMARK VINA RESULT:      -5.6      2.404      2.643
REMARK  Name = 
REMARK  3 active torsions:
REMARK  status: ('A' for Active; 'I' for Inactive)
REMARK    1  A    between atoms: N_2  and  C_4
REMARK    2  A    between atoms: C_9  and  N_10
REMARK    3  A    between atoms: C_16  and  C_18
REMARK                            x       y       z     vdW  Elec       q    Type
REMARK                         _______ _______ _______ _____ _____    ______ ____
ROOT
ATOM      1  N   UNL     1       7.950  -0.659  24.477  0.00  0.00    +0.000 N 
ATOM      2  C   UNL     1       6.582  -0.593  24.900  0.00  0.00    +0.000 C 
ATOM      3  C   UNL     1       6.302  -1.693  25.921  0.00  0.00    +0.000 C 
ATOM      4  N   UNL     1       7.558  -2.170  26.463  0.00  0.00    +0.000 N 
ATOM      5  C   UNL     1       8.643  -1.236  26.719  0.00  0.00    +0.000 C 
ATOM      6  C   UNL     1       9.055  -0.601  25.388  0.00  0.00    +0.000 C 
ATOM      7  C   UNL     1       7.806  -3.498  26.506  0.00  0.00    +0.000 C 
ATOM      8  O   UNL     1       8.940  -3.919  26.387  0.00  0.00    +0.000 OA
ENDROOT
BRANCH   1  14
ATOM      9  C   UNL     1       6.992  -1.314  22.357  0.00  0.00    +0.000 A 
ATOM     10  C   UNL     1       7.064  -0.423  20.955  0.00  0.00    +0.000 A 
ATOM     11  C   UNL     1       8.452   0.118  20.832  0.00  0.00    +0.000 A 
ATOM     12  C   UNL     1       9.681   0.208  21.623  0.00  0.00    +0.000 A 
ATOM     13  C   UNL     1       9.651  -0.694  22.894  0.00  0.00    +0.000 A 
ATOM     14  C   UNL     1       8.203  -1.139  23.156  0.00  0.00    +0.000 A 
BRANCH   9  16
ATOM     15  O   UNL     1       7.069  -3.425  22.638  0.00  0.00    +0.000 OA
ATOM     16  N   UNL     1       6.859  -2.535  21.766  0.00  0.00    +0.000 N 
ATOM     17  O   UNL     1       5.837  -2.571  21.212  0.00  0.00    +0.000 OA
ENDBRANCH   9  16
ENDBRANCH   1  14
BRANCH   7  18
ATOM     18  C   UNL     1       6.717  -4.342  27.137  0.00  0.00    +0.000 C 
ATOM     19 CL   UNL     1       6.277  -5.671  26.033  0.00  0.00    +0.000 Cl
ENDBRANCH   7  18
TORSDOF 3
ENDMDL
MODEL 9
REMARK VINA RESULT:      -5.5      2.099      2.624
REMARK  Name = 
REMARK  3 active torsions:
REMARK  status: ('A' for Active; 'I' for Inactive)
REMARK    1  A    between atoms: N_2  and  C_4
REMARK    2  A    between atoms: C_9  and  N_10
REMARK    3  A    between atoms: C_16  and  C_18
REMARK                            x       y       z     vdW  Elec       q    Type
REMARK                         _______ _______ _______ _____ _____    ______ ____
ROOT
ATOM      1  N   UNL     1       7.461  -1.198  25.050  0.00  0.00    +0.000 N 
ATOM      2  C   UNL     1       6.066  -1.433  24.823  0.00  0.00    +0.000 C 
ATOM      3  C   UNL     1       5.841  -2.895  24.447  0.00  0.00    +0.000 C 
ATOM      4  N   UNL     1       6.995  -3.673  24.849  0.00  0.00    +0.000 N 
ATOM      5  C   UNL     1       7.683  -3.367  26.093  0.00  0.00    +0.000 C 
ATOM      6  C   UNL     1       8.236  -1.942  26.000  0.00  0.00    +0.000 C 
ATOM      7  C   UNL     1       7.574  -4.516  23.964  0.00  0.00    +0.000 C 
ATOM      8  O   UNL     1       8.771  -4.726  24.003  0.00  0.00    +0.000 OA
ENDROOT
BRANCH   1  14
ATOM      9  C   UNL     1       9.619  -0.523  24.200  0.00  0.00    +0.000 A 
ATOM     10  C   UNL     1      10.322  -1.090  22.803  0.00  0.00    +0.000 A 
ATOM     11  C   UNL     1       9.262  -1.137  21.750  0.00  0.00    +0.000 A 
ATOM     12  C   UNL     1       7.812  -0.971  21.627  0.00  0.00    +0.000 A 
ATOM     13  C   UNL     1       7.162  -0.358  22.904  0.00  0.00    +0.000 A 
ATOM     14  C   UNL     1       8.166  -0.443  24.065  0.00  0.00    +0.000 A 
BRANCH   9  16
ATOM     15  O   UNL     1       9.483   1.539  24.722  0.00  0.00    +0.000 OA
ATOM     16  N   UNL     1      10.265   0.677  24.229  0.00  0.00    +0.000 N 
ATOM     17  O   UNL     1      11.292   0.535  24.756  0.00  0.00    +0.000 OA
ENDBRANCH   9  16
ENDBRANCH   1  14
BRANCH   7  18
ATOM     18  C   UNL     1       6.630  -5.475  23.269  0.00  0.00    +0.000 C 
ATOM     19 CL   UNL     1       7.207  -5.783  21.610  0.00  0.00    +0.000 Cl
ENDBRANCH   7  18
TORSDOF 3
ENDMDL
