MODEL 1
REMARK VINA RESULT:      -5.0      0.000      0.000
REMARK  Name = 
REMARK  2 active torsions:
REMARK  status: ('A' for Active; 'I' for Inactive)
REMARK    1  A    between atoms: N_5  and  C_6
REMARK    2  A    between atoms: C_6  and  C_7
REMARK                            x       y       z     vdW  Elec       q    Type
REMARK                         _______ _______ _______ _____ _____    ______ ____
ROOT
ATOM      1  O   UNL     1       6.424   1.374  17.165  0.00  0.00    +0.000 OA
ATOM      2  C   UNL     1       6.158   0.470  18.199  0.00  0.00    +0.000 C 
ATOM      3  C   UNL     1       7.449   0.078  18.856  0.00  0.00    +0.000 C 
ATOM      4  C   UNL     1       7.332  -0.067  20.336  0.00  0.00    +0.000 C 
ATOM      5  N   UNL     1       6.785   1.010  21.021  0.00  0.00    +0.000 NA
ATOM      6  C   UNL     1       5.872   1.786  20.305  0.00  0.00    +0.000 C 
ATOM      7  C   UNL     1       5.190   1.080  19.172  0.00  0.00    +0.000 C 
ENDROOT
BRANCH   5   8
ATOM      8  C   UNL     1       7.813   1.849  21.583  0.00  0.00    +0.000 C 
BRANCH   8   9
ATOM      9  C   UNL     1       8.648   1.007  22.550  0.00  0.00    +0.000 A 
ATOM     10  C   UNL     1       8.078   0.724  23.848  0.00  0.00    +0.000 A 
ATOM     11  C   UNL     1       8.981   0.947  24.948  0.00  0.00    +0.000 A 
ATOM     12  S   UNL     1      10.627   0.882  24.238  0.00  0.00    +0.000 S 
ATOM     13  C   UNL     1      10.076   1.141  22.541  0.00  0.00    +0.000 A 
ENDBRANCH   8   9
ENDBRANCH   5   8
TORSDOF 2
ENDMDL
MODEL 2
REMARK VINA RESULT:      -5.0      2.000      2.359
REMARK  Name = 
REMARK  2 active torsions:
REMARK  status: ('A' for Active; 'I' for Inactive)
REMARK    1  A    between atoms: N_5  and  C_6
REMARK    2  A    between atoms: C_6  and  C_7
REMARK                            x       y       z     vdW  Elec       q    Type
REMARK                         _______ _______ _______ _____ _____    ______ ____
ROOT
ATOM      1  O   UNL     1       6.204  -0.915  17.936  0.00  0.00    +0.000 OA
ATOM      2  C   UNL     1       5.997  -0.454  19.240  0.00  0.00    +0.000 C 
ATOM      3  C   UNL     1       6.074  -1.613  20.191  0.00  0.00    +0.000 C 
ATOM      4  C   UNL     1       6.751  -1.272  21.476  0.00  0.00    +0.000 C 
ATOM      5  N   UNL     1       8.006  -0.687  21.376  0.00  0.00    +0.000 NA
ATOM      6  C   UNL     1       8.234   0.071  20.226  0.00  0.00    +0.000 C 
ATOM      7  C   UNL     1       7.001   0.614  19.568  0.00  0.00    +0.000 C 
ENDROOT
BRANCH   5   8
ATOM      8  C   UNL     1       9.055  -1.662  21.541  0.00  0.00    +0.000 C 
BRANCH   8   9
ATOM      9  C   UNL     1       9.786  -1.367  22.852  0.00  0.00    +0.000 A 
ATOM     10  C   UNL     1       9.352  -2.084  24.031  0.00  0.00    +0.000 A 
ATOM     11  C   UNL     1       9.164  -1.250  25.190  0.00  0.00    +0.000 A 
ATOM     12  S   UNL     1      10.137   0.225  24.882  0.00  0.00    +0.000 S 
ATOM     13  C   UNL     1      10.263  -0.038  23.103  0.00  0.00    +0.000 A 
ENDBRANCH   8   9
ENDBRANCH   5   8
TORSDOF 2
ENDMDL
MODEL 3
REMARK VINA RESULT:      -4.8      3.574      5.573
REMARK  Name = 
REMARK  2 active torsions:
REMARK  status: ('A' for Active; 'I' for Inactive)
REMARK    1  A    between atoms: N_5  and  C_6
REMARK    2  A    between atoms: C_6  and  C_7
REMARK                            x       y       z     vdW  Elec       q    Type
REMARK                         _______ _______ _______ _____ _____    ______ ____
ROOT
ATOM      1  O   UNL     1      10.304   0.209  25.374  0.00  0.00    +0.000 OA
ATOM      2  C   UNL     1      10.772   0.409  24.071  0.00  0.00    +0.000 C 
ATOM      3  C   UNL     1      10.283  -0.706  23.194  0.00  0.00    +0.000 C 
ATOM      4  C   UNL     1       9.899  -0.250  21.826  0.00  0.00    +0.000 C 
ATOM      5  N   UNL     1       9.000   0.805  21.757  0.00  0.00    +0.000 NA
ATOM      6  C   UNL     1       9.032   1.702  22.826  0.00  0.00    +0.000 C 
ATOM      7  C   UNL     1      10.331   1.755  23.572  0.00  0.00    +0.000 C 
ENDROOT
BRANCH   5   8
ATOM      8  C   UNL     1       7.654   0.334  21.547  0.00  0.00    +0.000 C 
BRANCH   8   9
ATOM      9  C   UNL     1       7.144   0.906  20.222  0.00  0.00    +0.000 A 
ATOM     10  C   UNL     1       5.931   1.691  20.259  0.00  0.00    +0.000 A 
ATOM     11  C   UNL     1       4.971   1.336  19.245  0.00  0.00    +0.000 A 
ATOM     12  S   UNL     1       5.912   0.504  17.964  0.00  0.00    +0.000 S 
ATOM     13  C   UNL     1       7.332   0.152  19.017  0.00  0.00    +0.000 A 
ENDBRANCH   8   9
ENDBRANCH   5   8
TORSDOF 2
ENDMDL
MODEL 4
REMARK VINA RESULT:      -4.8      5.438      6.861
REMARK  Name = 
REMARK  2 active torsions:
REMARK  status: ('A' for Active; 'I' for Inactive)
REMARK    1  A    between atoms: N_5  and  C_6
REMARK    2  A    between atoms: C_6  and  C_7
REMARK                            x       y       z     vdW  Elec       q    Type
REMARK                         _______ _______ _______ _____ _____    ______ ____
ROOT
ATOM      1  O   UNL     1       7.980  -5.008  27.262  0.00  0.00    +0.000 OA
ATOM      2  C   UNL     1       8.181  -5.419  25.940  0.00  0.00    +0.000 C 
ATOM      3  C   UNL     1       7.005  -4.999  25.108  0.00  0.00    +0.000 C 
ATOM      4  C   UNL     1       7.388  -4.537  23.742  0.00  0.00    +0.000 C 
ATOM      5  N   UNL     1       8.364  -3.551  23.675  0.00  0.00    +0.000 NA
ATOM      6  C   UNL     1       9.290  -3.540  24.719  0.00  0.00    +0.000 C 
ATOM      7  C   UNL     1       9.472  -4.852  25.421  0.00  0.00    +0.000 C 
ENDROOT
BRANCH   5   8
ATOM      8  C   UNL     1       7.777  -2.243  23.521  0.00  0.00    +0.000 C 
BRANCH   8   9
ATOM      9  C   UNL     1       8.168  -1.700  22.144  0.00  0.00    +0.000 A 
ATOM     10  C   UNL     1       9.438  -1.017  22.035  0.00  0.00    +0.000 A 
ATOM     11  C   UNL     1       9.372   0.236  21.328  0.00  0.00    +0.000 A 
ATOM     12  S   UNL     1       7.884   0.146  20.330  0.00  0.00    +0.000 S 
ATOM     13  C   UNL     1       7.144  -1.200  21.273  0.00  0.00    +0.000 A 
ENDBRANCH   8   9
ENDBRANCH   5   8
TORSDOF 2
ENDMDL
MODEL 5
REMARK VINA RESULT:      -4.8      4.356      5.599
REMARK  Name = 
REMARK  2 active torsions:
REMARK  status: ('A' for Active; 'I' for Inactive)
REMARK    1  A    between atoms: N_5  and  C_6
REMARK    2  A    between atoms: C_6  and  C_7
REMARK                            x       y       z     vdW  Elec       q    Type
REMARK                         _______ _______ _______ _____ _____    ______ ____
ROOT
ATOM      1  O   UNL     1       9.193  -5.566  24.246  0.00  0.00    +0.000 OA
ATOM      2  C   UNL     1       8.516  -4.394  24.596  0.00  0.00    +0.000 C 
ATOM      3  C   UNL     1       9.485  -3.248  24.605  0.00  0.00    +0.000 C 
ATOM      4  C   UNL     1       8.901  -1.983  24.072  0.00  0.00    +0.000 C 
ATOM      5  N   UNL     1       8.303  -2.057  22.822  0.00  0.00    +0.000 NA
ATOM      6  C   UNL     1       7.754  -3.295  22.483  0.00  0.00    +0.000 C 
ATOM      7  C   UNL     1       7.375  -4.161  23.647  0.00  0.00    +0.000 C 
ENDROOT
BRANCH   5   8
ATOM      8  C   UNL     1       9.201  -1.615  21.784  0.00  0.00    +0.000 C 
BRANCH   8   9
ATOM      9  C   UNL     1       8.761  -0.221  21.330  0.00  0.00    +0.000 A 
ATOM     10  C   UNL     1       9.593   0.897  21.716  0.00  0.00    +0.000 A 
ATOM     11  C   UNL     1       8.862   2.013  22.259  0.00  0.00    +0.000 A 
ATOM     12  S   UNL     1       7.181   1.821  21.662  0.00  0.00    +0.000 S 
ATOM     13  C   UNL     1       7.361   0.078  21.243  0.00  0.00    +0.000 A 
ENDBRANCH   8   9
ENDBRANCH   5   8
TORSDOF 2
ENDMDL
MODEL 6
REMARK VINA RESULT:      -4.8      3.715      4.327
REMARK  Name = 
REMARK  2 active torsions:
REMARK  status: ('A' for Active; 'I' for Inactive)
REMARK    1  A    between atoms: N_5  and  C_6
REMARK    2  A    between atoms: C_6  and  C_7
REMARK                            x       y       z     vdW  Elec       q    Type
REMARK                         _______ _______ _______ _____ _____    ______ ____
ROOT
ATOM      1  O   UNL     1       7.853  -0.118  18.647  0.00  0.00    +0.000 OA
ATOM      2  C   UNL     1       7.464   0.229  19.945  0.00  0.00    +0.000 C 
ATOM      3  C   UNL     1       6.537  -0.823  20.480  0.00  0.00    +0.000 C 
ATOM      4  C   UNL     1       6.754  -1.113  21.927  0.00  0.00    +0.000 C 
ATOM      5  N   UNL     1       8.054  -1.420  22.307  0.00  0.00    +0.000 NA
ATOM      6  C   UNL     1       9.065  -0.848  21.534  0.00  0.00    +0.000 C 
ATOM      7  C   UNL     1       8.678   0.407  20.811  0.00  0.00    +0.000 C 
ENDROOT
BRANCH   5   8
ATOM      8  C   UNL     1       8.249  -2.846  22.399  0.00  0.00    +0.000 C 
BRANCH   8   9
ATOM      9  C   UNL     1       8.218  -3.241  23.877  0.00  0.00    +0.000 A 
ATOM     10  C   UNL     1       9.481  -3.549  24.510  0.00  0.00    +0.000 A 
ATOM     11  C   UNL     1       9.468  -4.761  25.288  0.00  0.00    +0.000 A 
ATOM     12  S   UNL     1       7.743  -5.067  25.672  0.00  0.00    +0.000 S 
ATOM     13  C   UNL     1       7.101  -3.989  24.378  0.00  0.00    +0.000 A 
ENDBRANCH   8   9
ENDBRANCH   5   8
TORSDOF 2
ENDMDL
MODEL 7
REMARK VINA RESULT:      -4.7      1.966      2.552
REMARK  Name = 
REMARK  2 active torsions:
REMARK  status: ('A' for Active; 'I' for Inactive)
REMARK    1  A    between atoms: N_5  and  C_6
REMARK    2  A    between atoms: C_6  and  C_7
REMARK                            x       y       z     vdW  Elec       q    Type
REMARK                         _______ _______ _______ _____ _____    ______ ____
ROOT
ATOM      1  O   UNL     1       3.888   1.572  19.337  0.00  0.00    +0.000 OA
ATOM      2  C   UNL     1       5.255   1.505  19.045  0.00  0.00    +0.000 C 
ATOM      3  C   UNL     1       6.040   1.698  20.309  0.00  0.00    +0.000 C 
ATOM      4  C   UNL     1       7.252   0.832  20.384  0.00  0.00    +0.000 C 
ATOM      5  N   UNL     1       7.054  -0.527  20.179  0.00  0.00    +0.000 NA
ATOM      6  C   UNL     1       5.982  -0.867  19.351  0.00  0.00    +0.000 C 
ATOM      7  C   UNL     1       5.569   0.196  18.379  0.00  0.00    +0.000 C 
ENDROOT
BRANCH   5   8
ATOM      8  C   UNL     1       6.955  -1.237  21.430  0.00  0.00    +0.000 C 
BRANCH   8   9
ATOM      9  C   UNL     1       8.158  -0.854  22.296  0.00  0.00    +0.000 A 
ATOM     10  C   UNL     1       9.396  -1.565  22.067  0.00  0.00    +0.000 A 
ATOM     11  C   UNL     1      10.035  -2.036  23.269  0.00  0.00    +0.000 A 
ATOM     12  S   UNL     1       9.376  -1.019  24.592  0.00  0.00    +0.000 S 
ATOM     13  C   UNL     1       7.941  -0.456  23.657  0.00  0.00    +0.000 A 
ENDBRANCH   8   9
ENDBRANCH   5   8
TORSDOF 2
ENDMDL
MODEL 8
REMARK VINA RESULT:      -4.6      3.833      4.524
REMARK  Name = 
REMARK  2 active torsions:
REMARK  status: ('A' for Active; 'I' for Inactive)
REMARK    1  A    between atoms: N_5  and  C_6
REMARK    2  A    between atoms: C_6  and  C_7
REMARK                            x       y       z     vdW  Elec       q    Type
REMARK                         _______ _______ _______ _____ _____    ______ ____
ROOT
ATOM      1  O   UNL     1       5.923  -5.184  20.729  0.00  0.00    +0.000 OA
ATOM      2  C   UNL     1       6.007  -4.786  22.068  0.00  0.00    +0.000 C 
ATOM      3  C   UNL     1       7.430  -4.899  22.528  0.00  0.00    +0.000 C 
ATOM      4  C   UNL     1       7.842  -3.791  23.438  0.00  0.00    +0.000 C 
ATOM      5  N   UNL     1       7.618  -2.500  22.979  0.00  0.00    +0.000 NA
ATOM      6  C   UNL     1       6.541  -2.344  22.104  0.00  0.00    +0.000 C 
ATOM      7  C   UNL     1       5.473  -3.390  22.218  0.00  0.00    +0.000 C 
ENDROOT
BRANCH   5   8
ATOM      8  C   UNL     1       8.811  -1.936  22.399  0.00  0.00    +0.000 C 
BRANCH   8   9
ATOM      9  C   UNL     1       8.899  -0.465  22.815  0.00  0.00    +0.000 A 
ATOM     10  C   UNL     1       9.047   0.515  21.762  0.00  0.00    +0.000 A 
ATOM     11  C   UNL     1      10.076   1.492  22.010  0.00  0.00    +0.000 A 
ATOM     12  S   UNL     1      10.332   1.480  23.786  0.00  0.00    +0.000 S 
ATOM     13  C   UNL     1       9.552  -0.124  24.045  0.00  0.00    +0.000 A 
ENDBRANCH   8   9
ENDBRANCH   5   8
TORSDOF 2
ENDMDL
MODEL 9
REMARK VINA RESULT:      -4.6      4.341      5.255
REMARK  Name = 
REMARK  2 active torsions:
REMARK  status: ('A' for Active; 'I' for Inactive)
REMARK    1  A    between atoms: N_5  and  C_6
REMARK    2  A    between atoms: C_6  and  C_7
REMARK                            x       y       z     vdW  Elec       q    Type
REMARK                         _______ _______ _______ _____ _____    ______ ____
ROOT
ATOM      1  O   UNL     1       9.671   1.711  22.366  0.00  0.00    +0.000 OA
ATOM      2  C   UNL     1       9.705   0.545  21.593  0.00  0.00    +0.000 C 
ATOM      3  C   UNL     1       9.970  -0.631  22.485  0.00  0.00    +0.000 C 
ATOM      4  C   UNL     1       9.200  -1.848  22.095  0.00  0.00    +0.000 C 
ATOM      5  N   UNL     1       7.828  -1.691  21.952  0.00  0.00    +0.000 NA
ATOM      6  C   UNL     1       7.399  -0.419  21.567  0.00  0.00    +0.000 C 
ATOM      7  C   UNL     1       8.417   0.400  20.833  0.00  0.00    +0.000 C 
ENDROOT
BRANCH   5   8
ATOM      8  C   UNL     1       7.126  -2.111  23.139  0.00  0.00    +0.000 C 
BRANCH   8   9
ATOM      9  C   UNL     1       6.550  -3.507  22.888  0.00  0.00    +0.000 A 
ATOM     10  C   UNL     1       7.195  -4.620  23.549  0.00  0.00    +0.000 A 
ATOM     11  C   UNL     1       7.459  -5.742  22.685  0.00  0.00    +0.000 A 
ATOM     12  S   UNL     1       6.330  -5.560  21.303  0.00  0.00    +0.000 S 
ATOM     13  C   UNL     1       5.996  -3.815  21.602  0.00  0.00    +0.000 A 
ENDBRANCH   8   9
ENDBRANCH   5   8
TORSDOF 2
ENDMDL
