MODEL 1
REMARK VINA RESULT:      -5.1      0.000      0.000
REMARK  Name = 
REMARK  6 active torsions:
REMARK  status: ('A' for Active; 'I' for Inactive)
REMARK    1  A    between atoms: N_3  and  C_4
REMARK    2  A    between atoms: C_4  and  C_5
REMARK    3  A    between atoms: C_4  and  C_9
REMARK    4  A    between atoms: C_5  and  C_6
REMARK    5  A    between atoms: N_10  and  C_11
REMARK    6  A    between atoms: C_11  and  C_12
REMARK                            x       y       z     vdW  Elec       q    Type
REMARK                         _______ _______ _______ _____ _____    ______ ____
ROOT
ATOM      1  C   UNL     1       7.872  -3.953  24.327  0.00  0.00    +0.000 C 
ENDROOT
BRANCH   1   4
ATOM      2  C   UNL     1       6.205  -2.200  22.975  0.00  0.00    +0.000 C 
ATOM      3  C   UNL     1       6.540  -3.547  22.372  0.00  0.00    +0.000 C 
ATOM      4  N   UNL     1       7.561  -4.216  22.955  0.00  0.00    +0.000 NA
ATOM      5  O   UNL     1       5.824  -4.078  21.556  0.00  0.00    +0.000 OA
ENDBRANCH   1   4
BRANCH   1   6
ATOM      6  C   UNL     1       9.364  -3.864  24.556  0.00  0.00    +0.000 C 
ATOM      7  N   UNL     1      10.006  -2.914  23.819  0.00  0.00    +0.000 NA
ATOM      8  O   UNL     1       9.984  -4.915  24.776  0.00  0.00    +0.000 OA
BRANCH   7   9
ATOM      9  C   UNL     1       9.769  -1.514  24.069  0.00  0.00    +0.000 C 
BRANCH   9  10
ATOM     10  C   UNL     1       9.714  -0.786  22.800  0.00  0.00    +0.000 C 
ATOM     11  C   UNL     1       9.665  -0.204  21.751  0.00  0.00    +0.000 C 
ATOM     12 BR   UNL     1       9.817   1.298  21.998  0.00  0.00    +0.000 Br
ENDBRANCH   9  10
ENDBRANCH   7   9
ENDBRANCH   1   6
BRANCH   1  13
ATOM     13  C   UNL     1       7.317  -5.045  25.229  0.00  0.00    +0.000 C 
BRANCH  13  14
ATOM     14  C   UNL     1       7.191  -4.399  26.618  0.00  0.00    +0.000 C 
ATOM     15  N   UNL     1       6.166  -3.512  26.711  0.00  0.00    +0.000 NA
ATOM     16  O   UNL     1       7.475  -5.082  27.596  0.00  0.00    +0.000 OA
ENDBRANCH  13  14
ENDBRANCH   1  13
TORSDOF 6
ENDMDL
MODEL 2
REMARK VINA RESULT:      -5.1      3.679      5.316
REMARK  Name = 
REMARK  6 active torsions:
REMARK  status: ('A' for Active; 'I' for Inactive)
REMARK    1  A    between atoms: N_3  and  C_4
REMARK    2  A    between atoms: C_4  and  C_5
REMARK    3  A    between atoms: C_4  and  C_9
REMARK    4  A    between atoms: C_5  and  C_6
REMARK    5  A    between atoms: N_10  and  C_11
REMARK    6  A    between atoms: C_11  and  C_12
REMARK                            x       y       z     vdW  Elec       q    Type
REMARK                         _______ _______ _______ _____ _____    ______ ____
ROOT
ATOM      1  C   UNL     1       9.668  -0.332  23.731  0.00  0.00    +0.000 C 
ENDROOT
BRANCH   1   4
ATOM      2  C   UNL     1       7.207  -0.812  24.911  0.00  0.00    +0.000 C 
ATOM      3  C   UNL     1       8.458  -1.451  25.476  0.00  0.00    +0.000 C 
ATOM      4  N   UNL     1       9.558  -1.389  24.690  0.00  0.00    +0.000 NA
ATOM      5  O   UNL     1       8.526  -1.817  26.625  0.00  0.00    +0.000 OA
ENDBRANCH   1   4
BRANCH   1   6
ATOM      6  C   UNL     1       9.955  -0.861  22.344  0.00  0.00    +0.000 C 
ATOM      7  N   UNL     1       8.901  -0.817  21.480  0.00  0.00    +0.000 NA
ATOM      8  O   UNL     1      10.727  -1.825  22.236  0.00  0.00    +0.000 OA
BRANCH   7   9
ATOM      9  C   UNL     1       8.392   0.448  21.015  0.00  0.00    +0.000 C 
BRANCH   9  10
ATOM     10  C   UNL     1       7.705   0.266  19.735  0.00  0.00    +0.000 C 
ATOM     11  C   UNL     1       7.156   0.107  18.679  0.00  0.00    +0.000 C 
ATOM     12 BR   UNL     1       5.759   0.727  18.738  0.00  0.00    +0.000 Br
ENDBRANCH   9  10
ENDBRANCH   7   9
ENDBRANCH   1   6
BRANCH   1  13
ATOM     13  C   UNL     1      10.783   0.632  24.111  0.00  0.00    +0.000 C 
BRANCH  13  14
ATOM     14  C   UNL     1      10.201   2.036  23.882  0.00  0.00    +0.000 C 
ATOM     15  N   UNL     1       9.147   2.323  24.690  0.00  0.00    +0.000 NA
ATOM     16  O   UNL     1      10.976   2.935  23.577  0.00  0.00    +0.000 OA
ENDBRANCH  13  14
ENDBRANCH   1  13
TORSDOF 6
ENDMDL
MODEL 3
REMARK VINA RESULT:      -4.9      1.805      1.927
REMARK  Name = 
REMARK  6 active torsions:
REMARK  status: ('A' for Active; 'I' for Inactive)
REMARK    1  A    between atoms: N_3  and  C_4
REMARK    2  A    between atoms: C_4  and  C_5
REMARK    3  A    between atoms: C_4  and  C_9
REMARK    4  A    between atoms: C_5  and  C_6
REMARK    5  A    between atoms: N_10  and  C_11
REMARK    6  A    between atoms: C_11  and  C_12
REMARK                            x       y       z     vdW  Elec       q    Type
REMARK                         _______ _______ _______ _____ _____    ______ ____
ROOT
ATOM      1  C   UNL     1       7.837  -3.826  23.863  0.00  0.00    +0.000 C 
ENDROOT
BRANCH   1   4
ATOM      2  C   UNL     1       5.172  -3.451  23.202  0.00  0.00    +0.000 C 
ATOM      3  C   UNL     1       6.048  -4.343  22.348  0.00  0.00    +0.000 C 
ATOM      4  N   UNL     1       7.379  -4.253  22.576  0.00  0.00    +0.000 NA
ATOM      5  O   UNL     1       5.586  -5.215  21.651  0.00  0.00    +0.000 OA
ENDBRANCH   1   4
BRANCH   1   6
ATOM      6  C   UNL     1       8.978  -2.840  23.753  0.00  0.00    +0.000 C 
ATOM      7  N   UNL     1       8.857  -1.929  22.747  0.00  0.00    +0.000 NA
ATOM      8  O   UNL     1      10.123  -3.241  24.011  0.00  0.00    +0.000 OA
BRANCH   7   9
ATOM      9  C   UNL     1       7.836  -0.913  22.800  0.00  0.00    +0.000 C 
BRANCH   9  10
ATOM     10  C   UNL     1       7.195  -0.784  21.491  0.00  0.00    +0.000 C 
ATOM     11  C   UNL     1       6.655  -0.687  20.422  0.00  0.00    +0.000 C 
ATOM     12 BR   UNL     1       7.521   0.168  19.494  0.00  0.00    +0.000 Br
ENDBRANCH   9  10
ENDBRANCH   7   9
ENDBRANCH   1   6
BRANCH   1  13
ATOM     13  C   UNL     1       8.312  -5.011  24.691  0.00  0.00    +0.000 C 
BRANCH  13  14
ATOM     14  C   UNL     1       7.521  -4.930  26.007  0.00  0.00    +0.000 C 
ATOM     15  N   UNL     1       6.339  -5.598  25.969  0.00  0.00    +0.000 NA
ATOM     16  O   UNL     1       8.155  -4.904  27.056  0.00  0.00    +0.000 OA
ENDBRANCH  13  14
ENDBRANCH   1  13
TORSDOF 6
ENDMDL
MODEL 4
REMARK VINA RESULT:      -4.9      3.113      3.916
REMARK  Name = 
REMARK  6 active torsions:
REMARK  status: ('A' for Active; 'I' for Inactive)
REMARK    1  A    between atoms: N_3  and  C_4
REMARK    2  A    between atoms: C_4  and  C_5
REMARK    3  A    between atoms: C_4  and  C_9
REMARK    4  A    between atoms: C_5  and  C_6
REMARK    5  A    between atoms: N_10  and  C_11
REMARK    6  A    between atoms: C_11  and  C_12
REMARK                            x       y       z     vdW  Elec       q    Type
REMARK                         _______ _______ _______ _____ _____    ______ ____
ROOT
ATOM      1  C   UNL     1       8.581  -1.375  22.404  0.00  0.00    +0.000 C 
ENDROOT
BRANCH   1   4
ATOM      2  C   UNL     1       7.527   1.039  21.542  0.00  0.00    +0.000 C 
ATOM      3  C   UNL     1       8.178   0.097  20.551  0.00  0.00    +0.000 C 
ATOM      4  N   UNL     1       8.900  -0.914  21.087  0.00  0.00    +0.000 NA
ATOM      5  O   UNL     1       7.914   0.126  19.372  0.00  0.00    +0.000 OA
ENDBRANCH   1   4
BRANCH   1   6
ATOM      6  C   UNL     1       9.819  -1.540  23.255  0.00  0.00    +0.000 C 
ATOM      7  N   UNL     1      10.488  -0.384  23.530  0.00  0.00    +0.000 NA
ATOM      8  O   UNL     1      10.506  -2.560  23.095  0.00  0.00    +0.000 OA
BRANCH   7   9
ATOM      9  C   UNL     1       9.897   0.616  24.382  0.00  0.00    +0.000 C 
BRANCH   9  10
ATOM     10  C   UNL     1      10.216   1.952  23.876  0.00  0.00    +0.000 C 
ATOM     11  C   UNL     1      10.492   3.041  23.450  0.00  0.00    +0.000 C 
ATOM     12 BR   UNL     1       9.447   4.050  23.929  0.00  0.00    +0.000 Br
ENDBRANCH   9  10
ENDBRANCH   7   9
ENDBRANCH   1   6
BRANCH   1  13
ATOM     13  C   UNL     1       7.860  -2.714  22.351  0.00  0.00    +0.000 C 
BRANCH  13  14
ATOM     14  C   UNL     1       6.362  -2.368  22.319  0.00  0.00    +0.000 C 
ATOM     15  N   UNL     1       5.714  -2.876  21.238  0.00  0.00    +0.000 NA
ATOM     16  O   UNL     1       5.768  -2.296  23.388  0.00  0.00    +0.000 OA
ENDBRANCH  13  14
ENDBRANCH   1  13
TORSDOF 6
ENDMDL
MODEL 5
REMARK VINA RESULT:      -4.9      1.560      3.586
REMARK  Name = 
REMARK  6 active torsions:
REMARK  status: ('A' for Active; 'I' for Inactive)
REMARK    1  A    between atoms: N_3  and  C_4
REMARK    2  A    between atoms: C_4  and  C_5
REMARK    3  A    between atoms: C_4  and  C_9
REMARK    4  A    between atoms: C_5  and  C_6
REMARK    5  A    between atoms: N_10  and  C_11
REMARK    6  A    between atoms: C_11  and  C_12
REMARK                            x       y       z     vdW  Elec       q    Type
REMARK                         _______ _______ _______ _____ _____    ______ ____
ROOT
ATOM      1  C   UNL     1       7.578  -3.147  24.553  0.00  0.00    +0.000 C 
ENDROOT
BRANCH   1   4
ATOM      2  C   UNL     1       9.258  -5.267  25.157  0.00  0.00    +0.000 C 
ATOM      3  C   UNL     1       8.074  -4.958  26.049  0.00  0.00    +0.000 C 
ATOM      4  N   UNL     1       7.477  -3.761  25.842  0.00  0.00    +0.000 NA
ATOM      5  O   UNL     1       7.572  -5.797  26.759  0.00  0.00    +0.000 OA
ENDBRANCH   1   4
BRANCH   1   6
ATOM      6  C   UNL     1       8.201  -1.772  24.635  0.00  0.00    +0.000 C 
ATOM      7  N   UNL     1       9.545  -1.734  24.412  0.00  0.00    +0.000 NA
ATOM      8  O   UNL     1       7.749  -0.976  25.471  0.00  0.00    +0.000 OA
BRANCH   7   9
ATOM      9  C   UNL     1      10.076  -2.021  23.103  0.00  0.00    +0.000 C 
BRANCH   9  10
ATOM     10  C   UNL     1       9.687  -0.965  22.167  0.00  0.00    +0.000 C 
ATOM     11  C   UNL     1       9.361  -0.110  21.388  0.00  0.00    +0.000 C 
ATOM     12 BR   UNL     1       9.701   1.262  21.972  0.00  0.00    +0.000 Br
ENDBRANCH   9  10
ENDBRANCH   7   9
ENDBRANCH   1   6
BRANCH   1  13
ATOM     13  C   UNL     1       6.206  -3.009  23.908  0.00  0.00    +0.000 C 
BRANCH  13  14
ATOM     14  C   UNL     1       6.423  -3.331  22.421  0.00  0.00    +0.000 C 
ATOM     15  N   UNL     1       7.334  -4.316  22.208  0.00  0.00    +0.000 NA
ATOM     16  O   UNL     1       5.458  -3.243  21.669  0.00  0.00    +0.000 OA
ENDBRANCH  13  14
ENDBRANCH   1  13
TORSDOF 6
ENDMDL
MODEL 6
REMARK VINA RESULT:      -4.8      3.103      5.348
REMARK  Name = 
REMARK  6 active torsions:
REMARK  status: ('A' for Active; 'I' for Inactive)
REMARK    1  A    between atoms: N_3  and  C_4
REMARK    2  A    between atoms: C_4  and  C_5
REMARK    3  A    between atoms: C_4  and  C_9
REMARK    4  A    between atoms: C_5  and  C_6
REMARK    5  A    between atoms: N_10  and  C_11
REMARK    6  A    between atoms: C_11  and  C_12
REMARK                            x       y       z     vdW  Elec       q    Type
REMARK                         _______ _______ _______ _____ _____    ______ ____
ROOT
ATOM      1  C   UNL     1       8.996  -1.711  23.523  0.00  0.00    +0.000 C 
ENDROOT
BRANCH   1   4
ATOM      2  C   UNL     1       8.777   0.546  25.116  0.00  0.00    +0.000 C 
ATOM      3  C   UNL     1      10.142   0.017  24.732  0.00  0.00    +0.000 C 
ATOM      4  N   UNL     1      10.163  -1.224  24.194  0.00  0.00    +0.000 NA
ATOM      5  O   UNL     1      11.122   0.724  24.722  0.00  0.00    +0.000 OA
ENDBRANCH   1   4
BRANCH   1   6
ATOM      6  C   UNL     1       8.690  -3.143  23.900  0.00  0.00    +0.000 C 
ATOM      7  N   UNL     1       7.492  -3.333  24.522  0.00  0.00    +0.000 NA
ATOM      8  O   UNL     1       9.630  -3.864  24.266  0.00  0.00    +0.000 OA
BRANCH   7   9
ATOM      9  C   UNL     1       6.258  -3.139  23.803  0.00  0.00    +0.000 C 
BRANCH   9  10
ATOM     10  C   UNL     1       6.243  -3.984  22.608  0.00  0.00    +0.000 C 
ATOM     11  C   UNL     1       6.222  -4.663  21.617  0.00  0.00    +0.000 C 
ATOM     12 BR   UNL     1       6.977  -5.967  21.883  0.00  0.00    +0.000 Br
ENDBRANCH   9  10
ENDBRANCH   7   9
ENDBRANCH   1   6
BRANCH   1  13
ATOM     13  C   UNL     1       9.169  -1.645  22.013  0.00  0.00    +0.000 C 
BRANCH  13  14
ATOM     14  C   UNL     1       8.175  -0.574  21.537  0.00  0.00    +0.000 C 
ATOM     15  N   UNL     1       8.775   0.555  21.078  0.00  0.00    +0.000 NA
ATOM     16  O   UNL     1       7.137  -0.951  21.005  0.00  0.00    +0.000 OA
ENDBRANCH  13  14
ENDBRANCH   1  13
TORSDOF 6
ENDMDL
MODEL 7
REMARK VINA RESULT:      -4.8      3.143      4.423
REMARK  Name = 
REMARK  6 active torsions:
REMARK  status: ('A' for Active; 'I' for Inactive)
REMARK    1  A    between atoms: N_3  and  C_4
REMARK    2  A    between atoms: C_4  and  C_5
REMARK    3  A    between atoms: C_4  and  C_9
REMARK    4  A    between atoms: C_5  and  C_6
REMARK    5  A    between atoms: N_10  and  C_11
REMARK    6  A    between atoms: C_11  and  C_12
REMARK                            x       y       z     vdW  Elec       q    Type
REMARK                         _______ _______ _______ _____ _____    ______ ____
ROOT
ATOM      1  C   UNL     1       8.369  -1.968  22.653  0.00  0.00    +0.000 C 
ENDROOT
BRANCH   1   4
ATOM      2  C   UNL     1       7.706   0.651  22.034  0.00  0.00    +0.000 C 
ATOM      3  C   UNL     1       8.315  -0.249  20.979  0.00  0.00    +0.000 C 
ATOM      4  N   UNL     1       8.854  -1.404  21.430  0.00  0.00    +0.000 NA
ATOM      5  O   UNL     1       8.157  -0.046  19.798  0.00  0.00    +0.000 OA
ENDBRANCH   1   4
BRANCH   1   6
ATOM      6  C   UNL     1       9.496  -2.288  23.609  0.00  0.00    +0.000 C 
ATOM      7  N   UNL     1       9.454  -1.619  24.796  0.00  0.00    +0.000 NA
ATOM      8  O   UNL     1      10.619  -2.512  23.132  0.00  0.00    +0.000 OA
BRANCH   7   9
ATOM      9  C   UNL     1       8.412  -1.896  25.753  0.00  0.00    +0.000 C 
BRANCH   9  10
ATOM     10  C   UNL     1       8.510  -3.285  26.205  0.00  0.00    +0.000 C 
ATOM     11  C   UNL     1       8.606  -4.420  26.585  0.00  0.00    +0.000 C 
ATOM     12 BR   UNL     1       7.371  -5.207  26.141  0.00  0.00    +0.000 Br
ENDBRANCH   9  10
ENDBRANCH   7   9
ENDBRANCH   1   6
BRANCH   1  13
ATOM     13  C   UNL     1       7.591  -3.249  22.390  0.00  0.00    +0.000 C 
BRANCH  13  14
ATOM     14  C   UNL     1       6.123  -2.812  22.258  0.00  0.00    +0.000 C 
ATOM     15  N   UNL     1       5.617  -2.991  21.009  0.00  0.00    +0.000 NA
ATOM     16  O   UNL     1       5.387  -2.974  23.224  0.00  0.00    +0.000 OA
ENDBRANCH  13  14
ENDBRANCH   1  13
TORSDOF 6
ENDMDL
MODEL 8
REMARK VINA RESULT:      -4.8      2.977      4.905
REMARK  Name = 
REMARK  6 active torsions:
REMARK  status: ('A' for Active; 'I' for Inactive)
REMARK    1  A    between atoms: N_3  and  C_4
REMARK    2  A    between atoms: C_4  and  C_5
REMARK    3  A    between atoms: C_4  and  C_9
REMARK    4  A    between atoms: C_5  and  C_6
REMARK    5  A    between atoms: N_10  and  C_11
REMARK    6  A    between atoms: C_11  and  C_12
REMARK                            x       y       z     vdW  Elec       q    Type
REMARK                         _______ _______ _______ _____ _____    ______ ____
ROOT
ATOM      1  C   UNL     1       8.349  -3.655  24.112  0.00  0.00    +0.000 C 
ENDROOT
BRANCH   1   4
ATOM      2  C   UNL     1       8.994  -1.126  25.046  0.00  0.00    +0.000 C 
ATOM      3  C   UNL     1       9.794  -1.748  23.920  0.00  0.00    +0.000 C 
ATOM      4  N   UNL     1       9.593  -3.070  23.715  0.00  0.00    +0.000 NA
ATOM      5  O   UNL     1      10.417  -1.076  23.133  0.00  0.00    +0.000 OA
ENDBRANCH   1   4
BRANCH   1   6
ATOM      6  C   UNL     1       8.555  -4.894  24.953  0.00  0.00    +0.000 C 
ATOM      7  N   UNL     1       8.440  -4.704  26.298  0.00  0.00    +0.000 NA
ATOM      8  O   UNL     1       9.396  -5.723  24.575  0.00  0.00    +0.000 OA
BRANCH   7   9
ATOM      9  C   UNL     1       7.163  -4.382  26.883  0.00  0.00    +0.000 C 
BRANCH   9  10
ATOM     10  C   UNL     1       6.190  -5.425  26.557  0.00  0.00    +0.000 C 
ATOM     11  C   UNL     1       5.392  -6.288  26.306  0.00  0.00    +0.000 C 
ATOM     12 BR   UNL     1       4.896  -6.115  24.870  0.00  0.00    +0.000 Br
ENDBRANCH   9  10
ENDBRANCH   7   9
ENDBRANCH   1   6
BRANCH   1  13
ATOM     13  C   UNL     1       7.517  -4.039  22.897  0.00  0.00    +0.000 C 
BRANCH  13  14
ATOM     14  C   UNL     1       6.313  -3.083  22.910  0.00  0.00    +0.000 C 
ATOM     15  N   UNL     1       5.414  -3.334  21.923  0.00  0.00    +0.000 NA
ATOM     16  O   UNL     1       5.907  -2.688  23.997  0.00  0.00    +0.000 OA
ENDBRANCH  13  14
ENDBRANCH   1  13
TORSDOF 6
ENDMDL
MODEL 9
REMARK VINA RESULT:      -4.7      1.988      3.386
REMARK  Name = 
REMARK  6 active torsions:
REMARK  status: ('A' for Active; 'I' for Inactive)
REMARK    1  A    between atoms: N_3  and  C_4
REMARK    2  A    between atoms: C_4  and  C_5
REMARK    3  A    between atoms: C_4  and  C_9
REMARK    4  A    between atoms: C_5  and  C_6
REMARK    5  A    between atoms: N_10  and  C_11
REMARK    6  A    between atoms: C_11  and  C_12
REMARK                            x       y       z     vdW  Elec       q    Type
REMARK                         _______ _______ _______ _____ _____    ______ ____
ROOT
ATOM      1  C   UNL     1       7.481  -3.601  23.540  0.00  0.00    +0.000 C 
ENDROOT
BRANCH   1   4
ATOM      2  C   UNL     1       7.268  -5.831  21.909  0.00  0.00    +0.000 C 
ATOM      3  C   UNL     1       6.336  -5.662  23.090  0.00  0.00    +0.000 C 
ATOM      4  N   UNL     1       6.682  -4.703  23.980  0.00  0.00    +0.000 NA
ATOM      5  O   UNL     1       5.257  -6.204  23.136  0.00  0.00    +0.000 OA
ENDBRANCH   1   4
BRANCH   1   6
ATOM      6  C   UNL     1       8.560  -3.257  24.542  0.00  0.00    +0.000 C 
ATOM      7  N   UNL     1       9.807  -3.094  24.014  0.00  0.00    +0.000 NA
ATOM      8  O   UNL     1       8.493  -3.766  25.670  0.00  0.00    +0.000 OA
BRANCH   7   9
ATOM      9  C   UNL     1      10.093  -1.975  23.151  0.00  0.00    +0.000 C 
BRANCH   9  10
ATOM     10  C   UNL     1      10.196  -0.750  23.945  0.00  0.00    +0.000 C 
ATOM     11  C   UNL     1      10.298   0.255  24.596  0.00  0.00    +0.000 C 
ATOM     12 BR   UNL     1       8.916   0.887  24.770  0.00  0.00    +0.000 Br
ENDBRANCH   9  10
ENDBRANCH   7   9
ENDBRANCH   1   6
BRANCH   1  13
ATOM     13  C   UNL     1       6.626  -2.363  23.319  0.00  0.00    +0.000 C 
BRANCH  13  14
ATOM     14  C   UNL     1       6.682  -2.094  21.807  0.00  0.00    +0.000 C 
ATOM     15  N   UNL     1       5.688  -2.706  21.112  0.00  0.00    +0.000 NA
ATOM     16  O   UNL     1       7.076  -0.995  21.434  0.00  0.00    +0.000 OA
ENDBRANCH  13  14
ENDBRANCH   1  13
TORSDOF 6
ENDMDL
