MODEL 1
REMARK VINA RESULT:      -5.1      0.000      0.000
REMARK  Name = 
REMARK  3 active torsions:
REMARK  status: ('A' for Active; 'I' for Inactive)
REMARK    1  A    between atoms: O_2  and  C_3
REMARK    2  A    between atoms: C_3  and  C_5
REMARK    3  A    between atoms: C_8  and  S_11
REMARK                            x       y       z     vdW  Elec       q    Type
REMARK                         _______ _______ _______ _____ _____    ______ ____
ROOT
ATOM      1  C   UNL     1       8.074   0.670  20.869  0.00  0.00    +0.000 A 
ATOM      2  C   UNL     1       7.017   0.583  22.127  0.00  0.00    +0.000 A 
ATOM      3  C   UNL     1       7.720  -0.043  23.292  0.00  0.00    +0.000 A 
ATOM      4  C   UNL     1       8.939  -0.805  23.545  0.00  0.00    +0.000 A 
ATOM      5  C   UNL     1       9.981  -0.659  22.425  0.00  0.00    +0.000 A 
ATOM      6  C   UNL     1       9.425   0.288  21.284  0.00  0.00    +0.000 A 
ENDROOT
BRANCH   4   7
ATOM      7  S   UNL     1       8.467  -2.527  23.703  0.00  0.00    +0.000 S 
ATOM      8  O   UNL     1       7.536  -2.616  24.800  0.00  0.00    +0.000 OA
ATOM      9  O   UNL     1       8.035  -3.005  22.437  0.00  0.00    +0.000 OA
ATOM     10  N   UNL     1       9.816  -3.395  24.155  0.00  0.00    +0.000 NA
ENDBRANCH   4   7
BRANCH   1  11
ATOM     11  C   UNL     1       7.445  -0.255  19.912  0.00  0.00    +0.000 C 
ATOM     12  O   UNL     1       6.478  -0.894  20.237  0.00  0.00    +0.000 OA
BRANCH  11  14
ATOM     13  C   UNL     1       6.174   0.725  18.187  0.00  0.00    +0.000 C 
ATOM     14  O   UNL     1       7.419   0.424  18.715  0.00  0.00    +0.000 OA
ENDBRANCH  11  14
ENDBRANCH   1  11
TORSDOF 3
ENDMDL
MODEL 2
REMARK VINA RESULT:      -5.0      2.768      4.982
REMARK  Name = 
REMARK  3 active torsions:
REMARK  status: ('A' for Active; 'I' for Inactive)
REMARK    1  A    between atoms: O_2  and  C_3
REMARK    2  A    between atoms: C_3  and  C_5
REMARK    3  A    between atoms: C_8  and  S_11
REMARK                            x       y       z     vdW  Elec       q    Type
REMARK                         _______ _______ _______ _____ _____    ______ ____
ROOT
ATOM      1  C   UNL     1       8.530  -1.018  23.236  0.00  0.00    +0.000 A 
ATOM      2  C   UNL     1       9.437  -1.054  21.865  0.00  0.00    +0.000 A 
ATOM      3  C   UNL     1       8.964   0.039  20.956  0.00  0.00    +0.000 A 
ATOM      4  C   UNL     1       7.808   0.922  20.827  0.00  0.00    +0.000 A 
ATOM      5  C   UNL     1       7.001   1.047  22.128  0.00  0.00    +0.000 A 
ATOM      6  C   UNL     1       7.656   0.157  23.263  0.00  0.00    +0.000 A 
ENDROOT
BRANCH   4   7
ATOM      7  S   UNL     1       6.764   0.247  19.536  0.00  0.00    +0.000 S 
ATOM      8  O   UNL     1       7.538   0.240  18.320  0.00  0.00    +0.000 OA
ATOM      9  O   UNL     1       6.227  -0.991  19.978  0.00  0.00    +0.000 OA
ATOM     10  N   UNL     1       5.499   1.304  19.287  0.00  0.00    +0.000 NA
ENDBRANCH   4   7
BRANCH   1  11
ATOM     11  C   UNL     1       7.821  -2.304  23.136  0.00  0.00    +0.000 C 
ATOM     12  O   UNL     1       7.938  -2.981  22.147  0.00  0.00    +0.000 OA
BRANCH  11  14
ATOM     13  C   UNL     1       9.191  -3.496  24.636  0.00  0.00    +0.000 C 
ATOM     14  O   UNL     1       7.971  -2.898  24.368  0.00  0.00    +0.000 OA
ENDBRANCH  11  14
ENDBRANCH   1  11
TORSDOF 3
ENDMDL
MODEL 3
REMARK VINA RESULT:      -4.9      2.132      2.583
REMARK  Name = 
REMARK  3 active torsions:
REMARK  status: ('A' for Active; 'I' for Inactive)
REMARK    1  A    between atoms: O_2  and  C_3
REMARK    2  A    between atoms: C_3  and  C_5
REMARK    3  A    between atoms: C_8  and  S_11
REMARK                            x       y       z     vdW  Elec       q    Type
REMARK                         _______ _______ _______ _____ _____    ______ ____
ROOT
ATOM      1  C   UNL     1       9.508  -0.274  21.293  0.00  0.00    +0.000 A 
ATOM      2  C   UNL     1       9.812   1.104  22.139  0.00  0.00    +0.000 A 
ATOM      3  C   UNL     1      10.178   0.726  23.542  0.00  0.00    +0.000 A 
ATOM      4  C   UNL     1      10.093  -0.445  24.410  0.00  0.00    +0.000 A 
ATOM      5  C   UNL     1       9.907  -1.757  23.632  0.00  0.00    +0.000 A 
ATOM      6  C   UNL     1       9.849  -1.463  22.076  0.00  0.00    +0.000 A 
ENDROOT
BRANCH   4   7
ATOM      7  S   UNL     1       8.696  -0.195  25.505  0.00  0.00    +0.000 S 
ATOM      8  O   UNL     1       9.043  -0.774  26.779  0.00  0.00    +0.000 OA
ATOM      9  O   UNL     1       8.336   1.179  25.487  0.00  0.00    +0.000 OA
ATOM     10  N   UNL     1       7.411  -1.078  24.916  0.00  0.00    +0.000 NA
ENDBRANCH   4   7
BRANCH   1  11
ATOM     11  C   UNL     1       8.072  -0.118  21.012  0.00  0.00    +0.000 C 
ATOM     12  O   UNL     1       7.360   0.443  21.805  0.00  0.00    +0.000 OA
BRANCH  11  14
ATOM     13  C   UNL     1       6.851  -0.120  18.997  0.00  0.00    +0.000 C 
ATOM     14  O   UNL     1       7.998   0.240  19.685  0.00  0.00    +0.000 OA
ENDBRANCH  11  14
ENDBRANCH   1  11
TORSDOF 3
ENDMDL
MODEL 4
REMARK VINA RESULT:      -4.9      2.953      4.913
REMARK  Name = 
REMARK  3 active torsions:
REMARK  status: ('A' for Active; 'I' for Inactive)
REMARK    1  A    between atoms: O_2  and  C_3
REMARK    2  A    between atoms: C_3  and  C_5
REMARK    3  A    between atoms: C_8  and  S_11
REMARK                            x       y       z     vdW  Elec       q    Type
REMARK                         _______ _______ _______ _____ _____    ______ ____
ROOT
ATOM      1  C   UNL     1      10.056  -0.426  24.342  0.00  0.00    +0.000 A 
ATOM      2  C   UNL     1       9.641  -1.753  23.462  0.00  0.00    +0.000 A 
ATOM      3  C   UNL     1       9.532  -1.351  22.024  0.00  0.00    +0.000 A 
ATOM      4  C   UNL     1       9.434  -0.121  21.243  0.00  0.00    +0.000 A 
ATOM      5  C   UNL     1       9.911   1.119  22.015  0.00  0.00    +0.000 A 
ATOM      6  C   UNL     1      10.373   0.708  23.473  0.00  0.00    +0.000 A 
ENDROOT
BRANCH   4   7
ATOM      7  S   UNL     1       7.714   0.083  20.784  0.00  0.00    +0.000 S 
ATOM      8  O   UNL     1       7.013  -1.099  21.218  0.00  0.00    +0.000 OA
ATOM      9  O   UNL     1       7.252   1.335  21.273  0.00  0.00    +0.000 OA
ATOM     10  N   UNL     1       7.620   0.107  19.120  0.00  0.00    +0.000 NA
ENDBRANCH   4   7
BRANCH   1  11
ATOM     11  C   UNL     1       8.848  -0.248  25.164  0.00  0.00    +0.000 C 
ATOM     12  O   UNL     1       7.793  -0.003  24.639  0.00  0.00    +0.000 OA
BRANCH  11  14
ATOM     13  C   UNL     1       7.696  -1.714  26.603  0.00  0.00    +0.000 C 
ATOM     14  O   UNL     1       8.903  -1.245  26.111  0.00  0.00    +0.000 OA
ENDBRANCH  11  14
ENDBRANCH   1  11
TORSDOF 3
ENDMDL
MODEL 5
REMARK VINA RESULT:      -4.9      2.740      3.783
REMARK  Name = 
REMARK  3 active torsions:
REMARK  status: ('A' for Active; 'I' for Inactive)
REMARK    1  A    between atoms: O_2  and  C_3
REMARK    2  A    between atoms: C_3  and  C_5
REMARK    3  A    between atoms: C_8  and  S_11
REMARK                            x       y       z     vdW  Elec       q    Type
REMARK                         _______ _______ _______ _____ _____    ______ ____
ROOT
ATOM      1  C   UNL     1       9.769   2.173  23.119  0.00  0.00    +0.000 A 
ATOM      2  C   UNL     1      10.480   1.329  24.339  0.00  0.00    +0.000 A 
ATOM      3  C   UNL     1      10.719  -0.073  23.868  0.00  0.00    +0.000 A 
ATOM      4  C   UNL     1      10.283  -0.942  22.779  0.00  0.00    +0.000 A 
ATOM      5  C   UNL     1       9.704  -0.167  21.586  0.00  0.00    +0.000 A 
ATOM      6  C   UNL     1       9.733   1.389  21.883  0.00  0.00    +0.000 A 
ENDROOT
BRANCH   4   7
ATOM      7  S   UNL     1       9.032  -2.041  23.443  0.00  0.00    +0.000 S 
ATOM      8  O   UNL     1       8.379  -1.342  24.522  0.00  0.00    +0.000 OA
ATOM      9  O   UNL     1       8.218  -2.510  22.378  0.00  0.00    +0.000 OA
ATOM     10  N   UNL     1       9.803  -3.352  24.126  0.00  0.00    +0.000 NA
ENDBRANCH   4   7
BRANCH   1  11
ATOM     11  C   UNL     1       8.447   2.450  23.705  0.00  0.00    +0.000 C 
ATOM     12  O   UNL     1       7.560   1.643  23.600  0.00  0.00    +0.000 OA
BRANCH  11  14
ATOM     13  C   UNL     1       8.537   4.361  25.079  0.00  0.00    +0.000 C 
ATOM     14  O   UNL     1       8.706   2.993  24.943  0.00  0.00    +0.000 OA
ENDBRANCH  11  14
ENDBRANCH   1  11
TORSDOF 3
ENDMDL
MODEL 6
REMARK VINA RESULT:      -4.8      2.301      2.836
REMARK  Name = 
REMARK  3 active torsions:
REMARK  status: ('A' for Active; 'I' for Inactive)
REMARK    1  A    between atoms: O_2  and  C_3
REMARK    2  A    between atoms: C_3  and  C_5
REMARK    3  A    between atoms: C_8  and  S_11
REMARK                            x       y       z     vdW  Elec       q    Type
REMARK                         _______ _______ _______ _____ _____    ______ ____
ROOT
ATOM      1  C   UNL     1       8.699   2.179  23.888  0.00  0.00    +0.000 A 
ATOM      2  C   UNL     1       7.720   1.060  24.592  0.00  0.00    +0.000 A 
ATOM      3  C   UNL     1       8.551  -0.130  24.962  0.00  0.00    +0.000 A 
ATOM      4  C   UNL     1       9.872  -0.671  24.656  0.00  0.00    +0.000 A 
ATOM      5  C   UNL     1      10.835   0.383  24.088  0.00  0.00    +0.000 A 
ATOM      6  C   UNL     1      10.106   1.785  23.983  0.00  0.00    +0.000 A 
ENDROOT
BRANCH   4   7
ATOM      7  S   UNL     1       9.645  -1.984  23.457  0.00  0.00    +0.000 S 
ATOM      8  O   UNL     1       8.249  -1.996  23.096  0.00  0.00    +0.000 OA
ATOM      9  O   UNL     1      10.591  -1.820  22.409  0.00  0.00    +0.000 OA
ATOM     10  N   UNL     1       9.953  -3.436  24.213  0.00  0.00    +0.000 NA
ENDBRANCH   4   7
BRANCH   1  11
ATOM     11  C   UNL     1       8.160   2.199  22.519  0.00  0.00    +0.000 C 
ATOM     12  O   UNL     1       7.770   3.233  22.040  0.00  0.00    +0.000 OA
BRANCH  11  14
ATOM     13  C   UNL     1       8.436   0.568  20.842  0.00  0.00    +0.000 C 
ATOM     14  O   UNL     1       9.011   1.407  21.782  0.00  0.00    +0.000 OA
ENDBRANCH  11  14
ENDBRANCH   1  11
TORSDOF 3
ENDMDL
MODEL 7
REMARK VINA RESULT:      -4.7      4.013      6.418
REMARK  Name = 
REMARK  3 active torsions:
REMARK  status: ('A' for Active; 'I' for Inactive)
REMARK    1  A    between atoms: O_2  and  C_3
REMARK    2  A    between atoms: C_3  and  C_5
REMARK    3  A    between atoms: C_8  and  S_11
REMARK                            x       y       z     vdW  Elec       q    Type
REMARK                         _______ _______ _______ _____ _____    ______ ____
ROOT
ATOM      1  C   UNL     1       6.616  -4.619  25.907  0.00  0.00    +0.000 A 
ATOM      2  C   UNL     1       6.661  -2.980  26.026  0.00  0.00    +0.000 A 
ATOM      3  C   UNL     1       7.129  -2.424  24.716  0.00  0.00    +0.000 A 
ATOM      4  C   UNL     1       7.780  -2.905  23.501  0.00  0.00    +0.000 A 
ATOM      5  C   UNL     1       7.664  -4.427  23.320  0.00  0.00    +0.000 A 
ATOM      6  C   UNL     1       6.864  -5.059  24.533  0.00  0.00    +0.000 A 
ENDROOT
BRANCH   4   7
ATOM      7  S   UNL     1       9.508  -2.444  23.604  0.00  0.00    +0.000 S 
ATOM      8  O   UNL     1      10.212  -3.554  24.197  0.00  0.00    +0.000 OA
ATOM      9  O   UNL     1       9.944  -1.999  22.327  0.00  0.00    +0.000 OA
ATOM     10  N   UNL     1       9.643  -1.172  24.672  0.00  0.00    +0.000 NA
ENDBRANCH   4   7
BRANCH   1  11
ATOM     11  C   UNL     1       7.664  -4.998  26.869  0.00  0.00    +0.000 C 
ATOM     12  O   UNL     1       8.703  -4.390  26.898  0.00  0.00    +0.000 OA
BRANCH  11  14
ATOM     13  C   UNL     1       5.877  -6.042  27.993  0.00  0.00    +0.000 C 
ATOM     14  O   UNL     1       7.003  -5.237  28.052  0.00  0.00    +0.000 OA
ENDBRANCH  11  14
ENDBRANCH   1  11
TORSDOF 3
ENDMDL
MODEL 8
REMARK VINA RESULT:      -4.6      3.311      4.543
REMARK  Name = 
REMARK  3 active torsions:
REMARK  status: ('A' for Active; 'I' for Inactive)
REMARK    1  A    between atoms: O_2  and  C_3
REMARK    2  A    between atoms: C_3  and  C_5
REMARK    3  A    between atoms: C_8  and  S_11
REMARK                            x       y       z     vdW  Elec       q    Type
REMARK                         _______ _______ _______ _____ _____    ______ ____
ROOT
ATOM      1  C   UNL     1       8.379  -1.214  21.855  0.00  0.00    +0.000 A 
ATOM      2  C   UNL     1       7.416  -0.700  23.086  0.00  0.00    +0.000 A 
ATOM      3  C   UNL     1       7.551   0.787  23.203  0.00  0.00    +0.000 A 
ATOM      4  C   UNL     1       8.450   1.837  22.733  0.00  0.00    +0.000 A 
ATOM      5  C   UNL     1       9.290   1.410  21.519  0.00  0.00    +0.000 A 
ATOM      6  C   UNL     1       8.945  -0.083  21.117  0.00  0.00    +0.000 A 
ENDROOT
BRANCH   4   7
ATOM      7  S   UNL     1       9.537   2.257  24.095  0.00  0.00    +0.000 S 
ATOM      8  O   UNL     1       8.827   3.188  24.936  0.00  0.00    +0.000 OA
ATOM      9  O   UNL     1      10.006   1.059  24.696  0.00  0.00    +0.000 OA
ATOM     10  N   UNL     1      10.849   3.079  23.478  0.00  0.00    +0.000 NA
ENDBRANCH   4   7
BRANCH   1  11
ATOM     11  C   UNL     1       9.367  -2.020  22.591  0.00  0.00    +0.000 C 
ATOM     12  O   UNL     1      10.498  -1.625  22.711  0.00  0.00    +0.000 OA
BRANCH  11  14
ATOM     13  C   UNL     1       9.332  -3.457  24.457  0.00  0.00    +0.000 C 
ATOM     14  O   UNL     1       8.702  -2.478  23.706  0.00  0.00    +0.000 OA
ENDBRANCH  11  14
ENDBRANCH   1  11
TORSDOF 3
ENDMDL
MODEL 9
REMARK VINA RESULT:      -4.6      5.060      5.751
REMARK  Name = 
REMARK  3 active torsions:
REMARK  status: ('A' for Active; 'I' for Inactive)
REMARK    1  A    between atoms: O_2  and  C_3
REMARK    2  A    between atoms: C_3  and  C_5
REMARK    3  A    between atoms: C_8  and  S_11
REMARK                            x       y       z     vdW  Elec       q    Type
REMARK                         _______ _______ _______ _____ _____    ______ ____
ROOT
ATOM      1  C   UNL     1       5.195  -5.743  23.907  0.00  0.00    +0.000 A 
ATOM      2  C   UNL     1       6.166  -5.737  22.580  0.00  0.00    +0.000 A 
ATOM      3  C   UNL     1       7.567  -5.443  23.020  0.00  0.00    +0.000 A 
ATOM      4  C   UNL     1       8.249  -4.922  24.202  0.00  0.00    +0.000 A 
ATOM      5  C   UNL     1       7.393  -5.009  25.475  0.00  0.00    +0.000 A 
ATOM      6  C   UNL     1       5.981  -5.642  25.139  0.00  0.00    +0.000 A 
ENDROOT
BRANCH   4   7
ATOM      7  S   UNL     1       8.656  -3.208  23.870  0.00  0.00    +0.000 S 
ATOM      8  O   UNL     1       7.936  -2.405  24.826  0.00  0.00    +0.000 OA
ATOM      9  O   UNL     1      10.069  -3.070  23.830  0.00  0.00    +0.000 OA
ATOM     10  N   UNL     1       8.052  -2.813  22.367  0.00  0.00    +0.000 NA
ENDBRANCH   4   7
BRANCH   1  11
ATOM     11  C   UNL     1       4.338  -4.579  23.631  0.00  0.00    +0.000 C 
ATOM     12  O   UNL     1       4.829  -3.489  23.490  0.00  0.00    +0.000 OA
BRANCH  11  14
ATOM     13  C   UNL     1       2.437  -5.885  23.155  0.00  0.00    +0.000 C 
ATOM     14  O   UNL     1       3.418  -5.017  22.706  0.00  0.00    +0.000 OA
ENDBRANCH  11  14
ENDBRANCH   1  11
TORSDOF 3
ENDMDL
