MODEL 1
REMARK VINA RESULT:      -5.6      0.000      0.000
REMARK  Name = 
REMARK  2 active torsions:
REMARK  status: ('A' for Active; 'I' for Inactive)
REMARK    1  A    between atoms: N_3  and  C_4
REMARK    2  A    between atoms: N_10  and  C_11
REMARK                            x       y       z     vdW  Elec       q    Type
REMARK                         _______ _______ _______ _____ _____    ______ ____
ROOT
ATOM      1  O   UNL     1       8.929  -2.875  25.344  0.00  0.00    +0.000 OA
ATOM      2  C   UNL     1       8.977  -2.457  24.210  0.00  0.00    +0.000 C 
ATOM      3  N   UNL     1       9.224  -1.191  23.904  0.00  0.00    +0.000 NA
ATOM      4  N   UNL     1       8.662  -3.185  23.143  0.00  0.00    +0.000 NA
ENDROOT
BRANCH   3   5
ATOM      5  C   UNL     1       8.495  -0.772  22.837  0.00  0.00    +0.000 A 
ATOM      6  C   UNL     1       9.580  -0.119  21.779  0.00  0.00    +0.000 A 
ATOM      7  C   UNL     1       9.181   1.292  21.488  0.00  0.00    +0.000 A 
ATOM      8  C   UNL     1       8.111   2.232  21.846  0.00  0.00    +0.000 A 
ATOM      9  C   UNL     1       7.075   1.609  22.863  0.00  0.00    +0.000 A 
ATOM     10  C   UNL     1       7.433   0.202  23.132  0.00  0.00    +0.000 A 
ENDBRANCH   3   5
BRANCH   4  11
ATOM     11  C   UNL     1       7.424  -3.718  23.232  0.00  0.00    +0.000 A 
ATOM     12  C   UNL     1       7.640  -5.357  23.343  0.00  0.00    +0.000 A 
ATOM     13  C   UNL     1       6.940  -6.025  22.181  0.00  0.00    +0.000 A 
ATOM     14  C   UNL     1       6.116  -5.496  21.054  0.00  0.00    +0.000 A 
ATOM     15  N   UNL     1       5.971  -4.098  21.026  0.00  0.00    +0.000 NA
ATOM     16  C   UNL     1       6.538  -3.481  22.035  0.00  0.00    +0.000 A 
ENDBRANCH   4  11
TORSDOF 2
ENDMDL
MODEL 2
REMARK VINA RESULT:      -5.6      1.765      5.389
REMARK  Name = 
REMARK  2 active torsions:
REMARK  status: ('A' for Active; 'I' for Inactive)
REMARK    1  A    between atoms: N_3  and  C_4
REMARK    2  A    between atoms: N_10  and  C_11
REMARK                            x       y       z     vdW  Elec       q    Type
REMARK                         _______ _______ _______ _____ _____    ______ ____
ROOT
ATOM      1  O   UNL     1      10.383  -3.095  23.818  0.00  0.00    +0.000 OA
ATOM      2  C   UNL     1       9.188  -2.954  23.937  0.00  0.00    +0.000 C 
ATOM      3  N   UNL     1       8.376  -3.909  24.369  0.00  0.00    +0.000 NA
ATOM      4  N   UNL     1       8.530  -1.872  23.532  0.00  0.00    +0.000 NA
ENDROOT
BRANCH   3   5
ATOM      5  C   UNL     1       7.182  -3.896  23.720  0.00  0.00    +0.000 A 
ATOM      6  C   UNL     1       6.034  -4.109  24.886  0.00  0.00    +0.000 A 
ATOM      7  C   UNL     1       5.211  -5.307  24.539  0.00  0.00    +0.000 A 
ATOM      8  C   UNL     1       5.117  -6.310  23.470  0.00  0.00    +0.000 A 
ATOM      9  C   UNL     1       6.220  -6.109  22.356  0.00  0.00    +0.000 A 
ATOM     10  C   UNL     1       7.019  -4.906  22.664  0.00  0.00    +0.000 A 
ENDBRANCH   3   5
BRANCH   4  11
ATOM     11  C   UNL     1       8.751  -1.595  22.229  0.00  0.00    +0.000 A 
ATOM     12  C   UNL     1       9.773  -0.291  22.209  0.00  0.00    +0.000 A 
ATOM     13  C   UNL     1       9.101   0.850  21.478  0.00  0.00    +0.000 A 
ATOM     14  C   UNL     1       7.781   0.975  20.790  0.00  0.00    +0.000 A 
ATOM     15  N   UNL     1       6.969  -0.170  20.843  0.00  0.00    +0.000 NA
ATOM     16  C   UNL     1       7.528  -1.195  21.443  0.00  0.00    +0.000 A 
ENDBRANCH   4  11
TORSDOF 2
ENDMDL
MODEL 3
REMARK VINA RESULT:      -5.5      2.242      2.637
REMARK  Name = 
REMARK  2 active torsions:
REMARK  status: ('A' for Active; 'I' for Inactive)
REMARK    1  A    between atoms: N_3  and  C_4
REMARK    2  A    between atoms: N_10  and  C_11
REMARK                            x       y       z     vdW  Elec       q    Type
REMARK                         _______ _______ _______ _____ _____    ______ ____
ROOT
ATOM      1  O   UNL     1      10.101  -3.603  24.221  0.00  0.00    +0.000 OA
ATOM      2  C   UNL     1       9.507  -2.760  23.588  0.00  0.00    +0.000 C 
ATOM      3  N   UNL     1      10.094  -1.702  23.044  0.00  0.00    +0.000 NA
ATOM      4  N   UNL     1       8.184  -2.723  23.471  0.00  0.00    +0.000 NA
ENDROOT
BRANCH   3   5
ATOM      5  C   UNL     1       9.314  -0.591  23.120  0.00  0.00    +0.000 A 
ATOM      6  C   UNL     1       9.440   0.147  21.649  0.00  0.00    +0.000 A 
ATOM      7  C   UNL     1       9.925   1.547  21.852  0.00  0.00    +0.000 A 
ATOM      8  C   UNL     1      10.287   2.439  22.961  0.00  0.00    +0.000 A 
ATOM      9  C   UNL     1      10.172   1.730  24.369  0.00  0.00    +0.000 A 
ATOM     10  C   UNL     1       9.658   0.358  24.190  0.00  0.00    +0.000 A 
ENDBRANCH   3   5
BRANCH   4  11
ATOM     11  C   UNL     1       7.562  -2.714  24.669  0.00  0.00    +0.000 A 
ATOM     12  C   UNL     1       6.887  -4.217  24.843  0.00  0.00    +0.000 A 
ATOM     13  C   UNL     1       5.390  -4.070  24.999  0.00  0.00    +0.000 A 
ATOM     14  C   UNL     1       4.489  -2.881  25.056  0.00  0.00    +0.000 A 
ATOM     15  N   UNL     1       5.130  -1.639  24.906  0.00  0.00    +0.000 NA
ATOM     16  C   UNL     1       6.435  -1.720  24.798  0.00  0.00    +0.000 A 
ENDBRANCH   4  11
TORSDOF 2
ENDMDL
MODEL 4
REMARK VINA RESULT:      -5.5      2.042      5.576
REMARK  Name = 
REMARK  2 active torsions:
REMARK  status: ('A' for Active; 'I' for Inactive)
REMARK    1  A    between atoms: N_3  and  C_4
REMARK    2  A    between atoms: N_10  and  C_11
REMARK                            x       y       z     vdW  Elec       q    Type
REMARK                         _______ _______ _______ _____ _____    ______ ____
ROOT
ATOM      1  O   UNL     1      10.811  -1.940  22.254  0.00  0.00    +0.000 OA
ATOM      2  C   UNL     1      10.090  -1.874  23.222  0.00  0.00    +0.000 C 
ATOM      3  N   UNL     1       9.813  -2.910  24.003  0.00  0.00    +0.000 NA
ATOM      4  N   UNL     1       9.388  -0.793  23.546  0.00  0.00    +0.000 NA
ENDROOT
BRANCH   3   5
ATOM      5  C   UNL     1       8.525  -2.892  24.437  0.00  0.00    +0.000 A 
ATOM      6  C   UNL     1       8.599  -3.111  26.071  0.00  0.00    +0.000 A 
ATOM      7  C   UNL     1       7.778  -4.307  26.434  0.00  0.00    +0.000 A 
ATOM      8  C   UNL     1       6.926  -5.303  25.772  0.00  0.00    +0.000 A 
ATOM      9  C   UNL     1       6.859  -5.095  24.207  0.00  0.00    +0.000 A 
ATOM     10  C   UNL     1       7.634  -3.895  23.835  0.00  0.00    +0.000 A 
ENDBRANCH   3   5
BRANCH   4  11
ATOM     11  C   UNL     1       8.599  -0.371  22.534  0.00  0.00    +0.000 A 
ATOM     12  C   UNL     1       9.418   0.872  21.806  0.00  0.00    +0.000 A 
ATOM     13  C   UNL     1       8.575   2.126  21.879  0.00  0.00    +0.000 A 
ATOM     14  C   UNL     1       7.214   2.402  22.426  0.00  0.00    +0.000 A 
ATOM     15  N   UNL     1       6.577   1.301  23.025  0.00  0.00    +0.000 NA
ATOM     16  C   UNL     1       7.261   0.184  22.956  0.00  0.00    +0.000 A 
ENDBRANCH   4  11
TORSDOF 2
ENDMDL
MODEL 5
REMARK VINA RESULT:      -5.4      2.375      4.969
REMARK  Name = 
REMARK  2 active torsions:
REMARK  status: ('A' for Active; 'I' for Inactive)
REMARK    1  A    between atoms: N_3  and  C_4
REMARK    2  A    between atoms: N_10  and  C_11
REMARK                            x       y       z     vdW  Elec       q    Type
REMARK                         _______ _______ _______ _____ _____    ______ ____
ROOT
ATOM      1  O   UNL     1      10.574  -0.335  23.315  0.00  0.00    +0.000 OA
ATOM      2  C   UNL     1       9.522  -0.748  23.744  0.00  0.00    +0.000 C 
ATOM      3  N   UNL     1       9.419  -1.509  24.826  0.00  0.00    +0.000 NA
ATOM      4  N   UNL     1       8.360  -0.598  23.116  0.00  0.00    +0.000 NA
ENDROOT
BRANCH   3   5
ATOM      5  C   UNL     1       8.453  -2.455  24.694  0.00  0.00    +0.000 A 
ATOM      6  C   UNL     1       7.603  -2.432  26.109  0.00  0.00    +0.000 A 
ATOM      7  C   UNL     1       7.629  -3.801  26.708  0.00  0.00    +0.000 A 
ATOM      8  C   UNL     1       8.158  -5.134  26.394  0.00  0.00    +0.000 A 
ATOM      9  C   UNL     1       8.976  -5.156  25.042  0.00  0.00    +0.000 A 
ATOM     10  C   UNL     1       8.929  -3.819  24.416  0.00  0.00    +0.000 A 
ENDBRANCH   3   5
BRANCH   4  11
ATOM     11  C   UNL     1       8.394  -1.074  21.853  0.00  0.00    +0.000 A 
ATOM     12  C   UNL     1       8.623   0.244  20.876  0.00  0.00    +0.000 A 
ATOM     13  C   UNL     1       7.458   0.354  19.917  0.00  0.00    +0.000 A 
ATOM     14  C   UNL     1       6.245  -0.487  19.696  0.00  0.00    +0.000 A 
ATOM     15  N   UNL     1       6.118  -1.591  20.557  0.00  0.00    +0.000 NA
ATOM     16  C   UNL     1       7.124  -1.741  21.386  0.00  0.00    +0.000 A 
ENDBRANCH   4  11
TORSDOF 2
ENDMDL
MODEL 6
REMARK VINA RESULT:      -5.3      1.950      5.413
REMARK  Name = 
REMARK  2 active torsions:
REMARK  status: ('A' for Active; 'I' for Inactive)
REMARK    1  A    between atoms: N_3  and  C_4
REMARK    2  A    between atoms: N_10  and  C_11
REMARK                            x       y       z     vdW  Elec       q    Type
REMARK                         _______ _______ _______ _____ _____    ______ ____
ROOT
ATOM      1  O   UNL     1       8.880  -3.180  26.440  0.00  0.00    +0.000 OA
ATOM      2  C   UNL     1       8.106  -2.931  25.545  0.00  0.00    +0.000 C 
ATOM      3  N   UNL     1       7.187  -3.783  25.112  0.00  0.00    +0.000 NA
ATOM      4  N   UNL     1       8.166  -1.829  24.804  0.00  0.00    +0.000 NA
ENDROOT
BRANCH   3   5
ATOM      5  C   UNL     1       7.022  -3.715  23.765  0.00  0.00    +0.000 A 
ATOM      6  C   UNL     1       5.392  -3.662  23.514  0.00  0.00    +0.000 A 
ATOM      7  C   UNL     1       5.005  -4.795  22.618  0.00  0.00    +0.000 A 
ATOM      8  C   UNL     1       5.649  -5.900  21.895  0.00  0.00    +0.000 A 
ATOM      9  C   UNL     1       7.209  -5.953  22.139  0.00  0.00    +0.000 A 
ATOM     10  C   UNL     1       7.614  -4.818  22.992  0.00  0.00    +0.000 A 
ENDBRANCH   3   5
BRANCH   4  11
ATOM     11  C   UNL     1       9.377  -1.661  24.230  0.00  0.00    +0.000 A 
ATOM     12  C   UNL     1       9.961  -0.224  24.813  0.00  0.00    +0.000 A 
ATOM     13  C   UNL     1      10.205   0.714  23.652  0.00  0.00    +0.000 A 
ATOM     14  C   UNL     1      10.053   0.560  22.175  0.00  0.00    +0.000 A 
ATOM     15  N   UNL     1       9.557  -0.685  21.752  0.00  0.00    +0.000 NA
ATOM     16  C   UNL     1       9.361  -1.541  22.727  0.00  0.00    +0.000 A 
ENDBRANCH   4  11
TORSDOF 2
ENDMDL
MODEL 7
REMARK VINA RESULT:      -5.3      2.769      3.621
REMARK  Name = 
REMARK  2 active torsions:
REMARK  status: ('A' for Active; 'I' for Inactive)
REMARK    1  A    between atoms: N_3  and  C_4
REMARK    2  A    between atoms: N_10  and  C_11
REMARK                            x       y       z     vdW  Elec       q    Type
REMARK                         _______ _______ _______ _____ _____    ______ ____
ROOT
ATOM      1  O   UNL     1      10.198  -4.629  24.972  0.00  0.00    +0.000 OA
ATOM      2  C   UNL     1       9.475  -3.793  24.483  0.00  0.00    +0.000 C 
ATOM      3  N   UNL     1       9.900  -2.849  23.654  0.00  0.00    +0.000 NA
ATOM      4  N   UNL     1       8.197  -3.639  24.815  0.00  0.00    +0.000 NA
ENDROOT
BRANCH   3   5
ATOM      5  C   UNL     1       9.264  -1.666  23.858  0.00  0.00    +0.000 A 
ATOM      6  C   UNL     1       8.872  -1.102  22.357  0.00  0.00    +0.000 A 
ATOM      7  C   UNL     1       9.469   0.257  22.182  0.00  0.00    +0.000 A 
ATOM      8  C   UNL     1      10.263   1.221  22.954  0.00  0.00    +0.000 A 
ATOM      9  C   UNL     1      10.643   0.679  24.388  0.00  0.00    +0.000 A 
ATOM     10  C   UNL     1      10.029  -0.648  24.593  0.00  0.00    +0.000 A 
ENDBRANCH   3   5
BRANCH   4  11
ATOM     11  C   UNL     1       8.030  -3.464  26.144  0.00  0.00    +0.000 A 
ATOM     12  C   UNL     1       7.538  -4.930  26.737  0.00  0.00    +0.000 A 
ATOM     13  C   UNL     1       6.182  -4.768  27.388  0.00  0.00    +0.000 A 
ATOM     14  C   UNL     1       5.294  -3.586  27.600  0.00  0.00    +0.000 A 
ATOM     15  N   UNL     1       5.777  -2.375  27.075  0.00  0.00    +0.000 NA
ATOM     16  C   UNL     1       6.966  -2.465  26.528  0.00  0.00    +0.000 A 
ENDBRANCH   4  11
TORSDOF 2
ENDMDL
MODEL 8
REMARK VINA RESULT:      -5.3      2.289      3.446
REMARK  Name = 
REMARK  2 active torsions:
REMARK  status: ('A' for Active; 'I' for Inactive)
REMARK    1  A    between atoms: N_3  and  C_4
REMARK    2  A    between atoms: N_10  and  C_11
REMARK                            x       y       z     vdW  Elec       q    Type
REMARK                         _______ _______ _______ _____ _____    ______ ____
ROOT
ATOM      1  O   UNL     1       5.688  -3.907  21.266  0.00  0.00    +0.000 OA
ATOM      2  C   UNL     1       5.980  -3.014  22.027  0.00  0.00    +0.000 C 
ATOM      3  N   UNL     1       6.423  -1.828  21.632  0.00  0.00    +0.000 NA
ATOM      4  N   UNL     1       6.014  -3.154  23.349  0.00  0.00    +0.000 NA
ENDROOT
BRANCH   3   5
ATOM      5  C   UNL     1       7.378  -1.337  22.464  0.00  0.00    +0.000 A 
ATOM      6  C   UNL     1       7.009   0.257  22.682  0.00  0.00    +0.000 A 
ATOM      7  C   UNL     1       8.186   1.084  22.275  0.00  0.00    +0.000 A 
ATOM      8  C   UNL     1       9.553   0.888  21.774  0.00  0.00    +0.000 A 
ATOM      9  C   UNL     1       9.904  -0.638  21.562  0.00  0.00    +0.000 A 
ATOM     10  C   UNL     1       8.765  -1.472  21.994  0.00  0.00    +0.000 A 
ENDBRANCH   3   5
BRANCH   4  11
ATOM     11  C   UNL     1       6.811  -4.172  23.736  0.00  0.00    +0.000 A 
ATOM     12  C   UNL     1       5.801  -5.331  24.355  0.00  0.00    +0.000 A 
ATOM     13  C   UNL     1       6.173  -5.589  25.798  0.00  0.00    +0.000 A 
ATOM     14  C   UNL     1       7.244  -5.041  26.682  0.00  0.00    +0.000 A 
ATOM     15  N   UNL     1       8.066  -4.066  26.090  0.00  0.00    +0.000 NA
ATOM     16  C   UNL     1       7.796  -3.833  24.827  0.00  0.00    +0.000 A 
ENDBRANCH   4  11
TORSDOF 2
ENDMDL
MODEL 9
REMARK VINA RESULT:      -5.3      2.778      3.277
REMARK  Name = 
REMARK  2 active torsions:
REMARK  status: ('A' for Active; 'I' for Inactive)
REMARK    1  A    between atoms: N_3  and  C_4
REMARK    2  A    between atoms: N_10  and  C_11
REMARK                            x       y       z     vdW  Elec       q    Type
REMARK                         _______ _______ _______ _____ _____    ______ ____
ROOT
ATOM      1  O   UNL     1       5.347  -1.239  24.708  0.00  0.00    +0.000 OA
ATOM      2  C   UNL     1       6.509  -0.952  24.879  0.00  0.00    +0.000 C 
ATOM      3  N   UNL     1       7.071   0.149  24.398  0.00  0.00    +0.000 NA
ATOM      4  N   UNL     1       7.392  -1.761  25.457  0.00  0.00    +0.000 NA
ENDROOT
BRANCH   3   5
ATOM      5  C   UNL     1       8.348  -0.067  23.986  0.00  0.00    +0.000 A 
ATOM      6  C   UNL     1       9.250   1.137  24.664  0.00  0.00    +0.000 A 
ATOM      7  C   UNL     1       9.959   1.878  23.576  0.00  0.00    +0.000 A 
ATOM      8  C   UNL     1      10.099   1.827  22.116  0.00  0.00    +0.000 A 
ATOM      9  C   UNL     1       9.231   0.677  21.466  0.00  0.00    +0.000 A 
ATOM     10  C   UNL     1       8.553  -0.090  22.529  0.00  0.00    +0.000 A 
ENDBRANCH   3   5
BRANCH   4  11
ATOM     11  C   UNL     1       7.451  -2.969  24.857  0.00  0.00    +0.000 A 
ATOM     12  C   UNL     1       7.023  -4.074  26.014  0.00  0.00    +0.000 A 
ATOM     13  C   UNL     1       8.166  -5.044  26.214  0.00  0.00    +0.000 A 
ATOM     14  C   UNL     1       9.503  -5.184  25.564  0.00  0.00    +0.000 A 
ATOM     15  N   UNL     1       9.796  -4.215  24.589  0.00  0.00    +0.000 NA
ATOM     16  C   UNL     1       8.817  -3.371  24.362  0.00  0.00    +0.000 A 
ENDBRANCH   4  11
TORSDOF 2
ENDMDL
