MODEL 1
REMARK VINA RESULT:      -6.3      0.000      0.000
REMARK  Name = 
REMARK  2 active torsions:
REMARK  status: ('A' for Active; 'I' for Inactive)
REMARK    1  A    between atoms: C_2  and  C_4
REMARK    2  A    between atoms: N_12  and  C_13
REMARK                            x       y       z     vdW  Elec       q    Type
REMARK                         _______ _______ _______ _____ _____    ______ ____
ROOT
ATOM      1  C   UNL     1       6.812  -4.491  23.460  0.00  0.00    +0.000 C 
ATOM      2  C   UNL     1       7.937  -5.219  23.967  0.00  0.00    +0.000 C 
ATOM      3  C   UNL     1       8.775  -4.583  25.038  0.00  0.00    +0.000 C 
ATOM      4  N   UNL     1       8.589  -3.128  25.005  0.00  0.00    +0.000 N 
ATOM      5  C   UNL     1       7.194  -2.664  25.148  0.00  0.00    +0.000 C 
ATOM      6  C   UNL     1       6.401  -3.195  23.974  0.00  0.00    +0.000 C 
ATOM      7  C   UNL     1       9.392  -2.404  24.195  0.00  0.00    +0.000 C 
ATOM      8  O   UNL     1      10.319  -2.870  23.598  0.00  0.00    +0.000 OA
ATOM      9  N   UNL     1       8.923  -1.186  24.051  0.00  0.00    +0.000 NA
ENDROOT
BRANCH   9  10
ATOM     10  C   UNL     1       8.691  -0.780  22.816  0.00  0.00    +0.000 A 
ATOM     11  C   UNL     1       9.992   0.088  22.295  0.00  0.00    +0.000 A 
ATOM     12  C   UNL     1       9.522   1.445  21.871  0.00  0.00    +0.000 A 
ATOM     13  C   UNL     1       8.255   2.179  21.731  0.00  0.00    +0.000 A 
ATOM     14  C   UNL     1       7.020   1.344  22.277  0.00  0.00    +0.000 A 
ATOM     15  C   UNL     1       7.449  -0.017  22.607  0.00  0.00    +0.000 A 
ENDBRANCH   9  10
BRANCH   1  17
ATOM     16  N   UNL     1       7.112  -5.734  21.390  0.00  0.00    +0.000 NA
ATOM     17  C   UNL     1       6.552  -4.665  22.004  0.00  0.00    +0.000 C 
ATOM     18  O   UNL     1       5.694  -4.018  21.420  0.00  0.00    +0.000 OA
ENDBRANCH   1  17
TORSDOF 2
ENDMDL
MODEL 2
REMARK VINA RESULT:      -6.3      2.533      5.498
REMARK  Name = 
REMARK  2 active torsions:
REMARK  status: ('A' for Active; 'I' for Inactive)
REMARK    1  A    between atoms: C_2  and  C_4
REMARK    2  A    between atoms: N_12  and  C_13
REMARK                            x       y       z     vdW  Elec       q    Type
REMARK                         _______ _______ _______ _____ _____    ______ ____
ROOT
ATOM      1  C   UNL     1       8.375   0.496  20.770  0.00  0.00    +0.000 C 
ATOM      2  C   UNL     1       8.105   1.587  21.658  0.00  0.00    +0.000 C 
ATOM      3  C   UNL     1       8.372   1.397  23.124  0.00  0.00    +0.000 C 
ATOM      4  N   UNL     1       8.377  -0.036  23.438  0.00  0.00    +0.000 N 
ATOM      5  C   UNL     1       9.337  -0.850  22.667  0.00  0.00    +0.000 C 
ATOM      6  C   UNL     1       8.956  -0.764  21.206  0.00  0.00    +0.000 C 
ATOM      7  C   UNL     1       7.201  -0.620  23.759  0.00  0.00    +0.000 C 
ATOM      8  O   UNL     1       6.183  -0.009  23.914  0.00  0.00    +0.000 OA
ATOM      9  N   UNL     1       7.313  -1.928  23.725  0.00  0.00    +0.000 NA
ENDROOT
BRANCH   9  10
ATOM     10  C   UNL     1       6.476  -2.574  22.935  0.00  0.00    +0.000 A 
ATOM     11  C   UNL     1       5.224  -3.142  23.846  0.00  0.00    +0.000 A 
ATOM     12  C   UNL     1       5.133  -4.625  23.660  0.00  0.00    +0.000 A 
ATOM     13  C   UNL     1       5.784  -5.680  22.868  0.00  0.00    +0.000 A 
ATOM     14  C   UNL     1       7.012  -5.122  22.031  0.00  0.00    +0.000 A 
ATOM     15  C   UNL     1       7.057  -3.662  22.128  0.00  0.00    +0.000 A 
ENDBRANCH   9  10
BRANCH   1  17
ATOM     16  N   UNL     1       6.187   0.894  19.784  0.00  0.00    +0.000 NA
ATOM     17  C   UNL     1       7.419   0.353  19.638  0.00  0.00    +0.000 C 
ATOM     18  O   UNL     1       7.781  -0.029  18.533  0.00  0.00    +0.000 OA
ENDBRANCH   1  17
TORSDOF 2
ENDMDL
MODEL 3
REMARK VINA RESULT:      -6.2      2.317      5.200
REMARK  Name = 
REMARK  2 active torsions:
REMARK  status: ('A' for Active; 'I' for Inactive)
REMARK    1  A    between atoms: C_2  and  C_4
REMARK    2  A    between atoms: N_12  and  C_13
REMARK                            x       y       z     vdW  Elec       q    Type
REMARK                         _______ _______ _______ _____ _____    ______ ____
ROOT
ATOM      1  C   UNL     1       9.307   0.346  21.481  0.00  0.00    +0.000 C 
ATOM      2  C   UNL     1       9.635   1.223  22.566  0.00  0.00    +0.000 C 
ATOM      3  C   UNL     1      10.310   0.641  23.774  0.00  0.00    +0.000 C 
ATOM      4  N   UNL     1      10.049  -0.802  23.834  0.00  0.00    +0.000 N 
ATOM      5  C   UNL     1      10.458  -1.569  22.640  0.00  0.00    +0.000 C 
ATOM      6  C   UNL     1       9.653  -1.066  21.462  0.00  0.00    +0.000 C 
ATOM      7  C   UNL     1       8.935  -1.219  24.475  0.00  0.00    +0.000 C 
ATOM      8  O   UNL     1       8.219  -0.487  25.096  0.00  0.00    +0.000 OA
ATOM      9  N   UNL     1       8.688  -2.478  24.196  0.00  0.00    +0.000 NA
ENDROOT
BRANCH   9  10
ATOM     10  C   UNL     1       7.501  -2.751  23.686  0.00  0.00    +0.000 A 
ATOM     11  C   UNL     1       6.567  -3.432  24.862  0.00  0.00    +0.000 A 
ATOM     12  C   UNL     1       6.086  -4.764  24.378  0.00  0.00    +0.000 A 
ATOM     13  C   UNL     1       6.155  -5.586  23.159  0.00  0.00    +0.000 A 
ATOM     14  C   UNL     1       7.092  -4.935  22.056  0.00  0.00    +0.000 A 
ATOM     15  C   UNL     1       7.494  -3.591  22.476  0.00  0.00    +0.000 A 
ENDBRANCH   9  10
BRANCH   1  17
ATOM     16  N   UNL     1       7.809   0.066  19.585  0.00  0.00    +0.000 NA
ATOM     17  C   UNL     1       8.030   0.658  20.782  0.00  0.00    +0.000 C 
ATOM     18  O   UNL     1       7.110   1.235  21.347  0.00  0.00    +0.000 OA
ENDBRANCH   1  17
TORSDOF 2
ENDMDL
MODEL 4
REMARK VINA RESULT:      -6.1      2.685      5.392
REMARK  Name = 
REMARK  2 active torsions:
REMARK  status: ('A' for Active; 'I' for Inactive)
REMARK    1  A    between atoms: C_2  and  C_4
REMARK    2  A    between atoms: N_12  and  C_13
REMARK                            x       y       z     vdW  Elec       q    Type
REMARK                         _______ _______ _______ _____ _____    ______ ____
ROOT
ATOM      1  C   UNL     1       9.234   0.548  21.512  0.00  0.00    +0.000 C 
ATOM      2  C   UNL     1       8.782   1.828  21.969  0.00  0.00    +0.000 C 
ATOM      3  C   UNL     1       9.219   2.295  23.327  0.00  0.00    +0.000 C 
ATOM      4  N   UNL     1       9.609   1.138  24.141  0.00  0.00    +0.000 N 
ATOM      5  C   UNL     1      10.668   0.287  23.563  0.00  0.00    +0.000 C 
ATOM      6  C   UNL     1      10.147  -0.294  22.267  0.00  0.00    +0.000 C 
ATOM      7  C   UNL     1       8.650   0.515  24.859  0.00  0.00    +0.000 C 
ATOM      8  O   UNL     1       7.530   0.927  24.960  0.00  0.00    +0.000 OA
ATOM      9  N   UNL     1       9.080  -0.649  25.289  0.00  0.00    +0.000 NA
ENDROOT
BRANCH   9  10
ATOM     10  C   UNL     1       8.363  -1.706  24.957  0.00  0.00    +0.000 A 
ATOM     11  C   UNL     1       7.407  -2.117  26.237  0.00  0.00    +0.000 A 
ATOM     12  C   UNL     1       7.689  -3.541  26.604  0.00  0.00    +0.000 A 
ATOM     13  C   UNL     1       8.505  -4.665  26.120  0.00  0.00    +0.000 A 
ATOM     14  C   UNL     1       9.449  -4.239  24.917  0.00  0.00    +0.000 A 
ATOM     15  C   UNL     1       9.119  -2.879  24.485  0.00  0.00    +0.000 A 
ENDBRANCH   9  10
BRANCH   1  17
ATOM     16  N   UNL     1       7.463  -1.112  21.351  0.00  0.00    +0.000 NA
ATOM     17  C   UNL     1       8.246  -0.218  20.703  0.00  0.00    +0.000 C 
ATOM     18  O   UNL     1       7.978   0.092  19.550  0.00  0.00    +0.000 OA
ENDBRANCH   1  17
TORSDOF 2
ENDMDL
MODEL 5
REMARK VINA RESULT:      -6.0      2.083      3.798
REMARK  Name = 
REMARK  2 active torsions:
REMARK  status: ('A' for Active; 'I' for Inactive)
REMARK    1  A    between atoms: C_2  and  C_4
REMARK    2  A    between atoms: N_12  and  C_13
REMARK                            x       y       z     vdW  Elec       q    Type
REMARK                         _______ _______ _______ _____ _____    ______ ____
ROOT
ATOM      1  C   UNL     1       7.158  -5.260  25.468  0.00  0.00    +0.000 C 
ATOM      2  C   UNL     1       5.793  -5.617  25.216  0.00  0.00    +0.000 C 
ATOM      3  C   UNL     1       5.358  -5.808  23.792  0.00  0.00    +0.000 C 
ATOM      4  N   UNL     1       6.280  -5.097  22.899  0.00  0.00    +0.000 N 
ATOM      5  C   UNL     1       7.701  -5.479  23.020  0.00  0.00    +0.000 C 
ATOM      6  C   UNL     1       8.159  -5.137  24.421  0.00  0.00    +0.000 C 
ATOM      7  C   UNL     1       6.018  -3.801  22.618  0.00  0.00    +0.000 C 
ATOM      8  O   UNL     1       5.017  -3.242  22.961  0.00  0.00    +0.000 OA
ATOM      9  N   UNL     1       7.063  -3.232  22.062  0.00  0.00    +0.000 NA
ENDROOT
BRANCH   9  10
ATOM     10  C   UNL     1       7.537  -2.152  22.656  0.00  0.00    +0.000 A 
ATOM     11  C   UNL     1       7.058  -0.827  21.799  0.00  0.00    +0.000 A 
ATOM     12  C   UNL     1       8.275  -0.049  21.404  0.00  0.00    +0.000 A 
ATOM     13  C   UNL     1       9.730  -0.096  21.614  0.00  0.00    +0.000 A 
ATOM     14  C   UNL     1      10.176  -1.399  22.403  0.00  0.00    +0.000 A 
ATOM     15  C   UNL     1       8.993  -2.121  22.876  0.00  0.00    +0.000 A 
ENDBRANCH   9  10
BRANCH   1  17
ATOM     16  N   UNL     1       7.762  -3.061  26.313  0.00  0.00    +0.000 NA
ATOM     17  C   UNL     1       7.364  -4.321  26.605  0.00  0.00    +0.000 C 
ATOM     18  O   UNL     1       6.979  -4.583  27.737  0.00  0.00    +0.000 OA
ENDBRANCH   1  17
TORSDOF 2
ENDMDL
MODEL 6
REMARK VINA RESULT:      -5.9      3.616      4.652
REMARK  Name = 
REMARK  2 active torsions:
REMARK  status: ('A' for Active; 'I' for Inactive)
REMARK    1  A    between atoms: C_2  and  C_4
REMARK    2  A    between atoms: N_12  and  C_13
REMARK                            x       y       z     vdW  Elec       q    Type
REMARK                         _______ _______ _______ _____ _____    ______ ____
ROOT
ATOM      1  C   UNL     1       8.615   0.640  25.198  0.00  0.00    +0.000 C 
ATOM      2  C   UNL     1       9.940   0.096  25.181  0.00  0.00    +0.000 C 
ATOM      3  C   UNL     1      10.929   0.658  24.200  0.00  0.00    +0.000 C 
ATOM      4  N   UNL     1      10.210   1.305  23.097  0.00  0.00    +0.000 N 
ATOM      5  C   UNL     1       9.270   2.372  23.494  0.00  0.00    +0.000 C 
ATOM      6  C   UNL     1       8.196   1.752  24.360  0.00  0.00    +0.000 C 
ATOM      7  C   UNL     1       9.859   0.545  22.036  0.00  0.00    +0.000 C 
ATOM      8  O   UNL     1      10.205  -0.592  21.897  0.00  0.00    +0.000 OA
ATOM      9  N   UNL     1       8.986   1.178  21.286  0.00  0.00    +0.000 NA
ENDROOT
BRANCH   9  10
ATOM     10  C   UNL     1       7.840   0.564  21.062  0.00  0.00    +0.000 A 
ATOM     11  C   UNL     1       7.891  -0.114  19.559  0.00  0.00    +0.000 A 
ATOM     12  C   UNL     1       6.737   0.407  18.761  0.00  0.00    +0.000 A 
ATOM     13  C   UNL     1       5.567   1.278  18.952  0.00  0.00    +0.000 A 
ATOM     14  C   UNL     1       5.558   1.954  20.388  0.00  0.00    +0.000 A 
ATOM     15  C   UNL     1       6.625   1.384  21.212  0.00  0.00    +0.000 A 
ENDBRANCH   9  10
BRANCH   1  17
ATOM     16  N   UNL     1       6.416  -0.275  24.705  0.00  0.00    +0.000 NA
ATOM     17  C   UNL     1       7.532  -0.346  25.467  0.00  0.00    +0.000 C 
ATOM     18  O   UNL     1       7.713  -1.324  26.180  0.00  0.00    +0.000 OA
ENDBRANCH   1  17
TORSDOF 2
ENDMDL
MODEL 7
REMARK VINA RESULT:      -5.9      2.181      2.646
REMARK  Name = 
REMARK  2 active torsions:
REMARK  status: ('A' for Active; 'I' for Inactive)
REMARK    1  A    between atoms: C_2  and  C_4
REMARK    2  A    between atoms: N_12  and  C_13
REMARK                            x       y       z     vdW  Elec       q    Type
REMARK                         _______ _______ _______ _____ _____    ______ ____
ROOT
ATOM      1  C   UNL     1       7.075  -3.945  24.546  0.00  0.00    +0.000 C 
ATOM      2  C   UNL     1       7.906  -3.389  25.573  0.00  0.00    +0.000 C 
ATOM      3  C   UNL     1       7.726  -1.942  25.930  0.00  0.00    +0.000 C 
ATOM      4  N   UNL     1       7.090  -1.237  24.811  0.00  0.00    +0.000 N 
ATOM      5  C   UNL     1       5.791  -1.788  24.373  0.00  0.00    +0.000 C 
ATOM      6  C   UNL     1       6.023  -3.198  23.877  0.00  0.00    +0.000 C 
ATOM      7  C   UNL     1       7.887  -0.719  23.851  0.00  0.00    +0.000 C 
ATOM      8  O   UNL     1       9.082  -0.700  23.927  0.00  0.00    +0.000 OA
ATOM      9  N   UNL     1       7.180  -0.388  22.795  0.00  0.00    +0.000 NA
ENDROOT
BRANCH   9  10
ATOM     10  C   UNL     1       7.541  -0.930  21.646  0.00  0.00    +0.000 A 
ATOM     11  C   UNL     1       8.319   0.211  20.747  0.00  0.00    +0.000 A 
ATOM     12  C   UNL     1       7.614   0.346  19.433  0.00  0.00    +0.000 A 
ATOM     13  C   UNL     1       6.495  -0.279  18.712  0.00  0.00    +0.000 A 
ATOM     14  C   UNL     1       5.732  -1.344  19.609  0.00  0.00    +0.000 A 
ATOM     15  C   UNL     1       6.464  -1.556  20.860  0.00  0.00    +0.000 A 
ENDBRANCH   9  10
BRANCH   1  17
ATOM     16  N   UNL     1       7.283  -5.084  22.407  0.00  0.00    +0.000 NA
ATOM     17  C   UNL     1       7.740  -4.953  23.674  0.00  0.00    +0.000 C 
ATOM     18  O   UNL     1       8.796  -5.484  23.992  0.00  0.00    +0.000 OA
ENDBRANCH   1  17
TORSDOF 2
ENDMDL
MODEL 8
REMARK VINA RESULT:      -5.9      2.341      5.542
REMARK  Name = 
REMARK  2 active torsions:
REMARK  status: ('A' for Active; 'I' for Inactive)
REMARK    1  A    between atoms: C_2  and  C_4
REMARK    2  A    between atoms: N_12  and  C_13
REMARK                            x       y       z     vdW  Elec       q    Type
REMARK                         _______ _______ _______ _____ _____    ______ ____
ROOT
ATOM      1  C   UNL     1       7.438   1.699  21.998  0.00  0.00    +0.000 C 
ATOM      2  C   UNL     1       8.722   2.198  22.391  0.00  0.00    +0.000 C 
ATOM      3  C   UNL     1       9.946   1.477  21.905  0.00  0.00    +0.000 C 
ATOM      4  N   UNL     1       9.591   0.101  21.539  0.00  0.00    +0.000 N 
ATOM      5  C   UNL     1       8.525  -0.029  20.526  0.00  0.00    +0.000 C 
ATOM      6  C   UNL     1       7.260   0.570  21.098  0.00  0.00    +0.000 C 
ATOM      7  C   UNL     1       9.636  -0.844  22.503  0.00  0.00    +0.000 C 
ATOM      8  O   UNL     1      10.061  -0.642  23.604  0.00  0.00    +0.000 OA
ATOM      9  N   UNL     1       9.023  -1.935  22.106  0.00  0.00    +0.000 NA
ENDROOT
BRANCH   9  10
ATOM     10  C   UNL     1       8.039  -2.374  22.869  0.00  0.00    +0.000 A 
ATOM     11  C   UNL     1       8.622  -3.575  23.838  0.00  0.00    +0.000 A 
ATOM     12  C   UNL     1       7.799  -4.806  23.618  0.00  0.00    +0.000 A 
ATOM     13  C   UNL     1       6.613  -5.219  22.852  0.00  0.00    +0.000 A 
ATOM     14  C   UNL     1       6.093  -4.065  21.894  0.00  0.00    +0.000 A 
ATOM     15  C   UNL     1       6.826  -2.827  22.166  0.00  0.00    +0.000 A 
ENDBRANCH   9  10
BRANCH   1  17
ATOM     16  N   UNL     1       5.448   2.787  22.877  0.00  0.00    +0.000 NA
ATOM     17  C   UNL     1       6.373   1.812  23.033  0.00  0.00    +0.000 C 
ATOM     18  O   UNL     1       6.190   0.936  23.867  0.00  0.00    +0.000 OA
ENDBRANCH   1  17
TORSDOF 2
ENDMDL
MODEL 9
REMARK VINA RESULT:      -5.7      2.908      4.944
REMARK  Name = 
REMARK  2 active torsions:
REMARK  status: ('A' for Active; 'I' for Inactive)
REMARK    1  A    between atoms: C_2  and  C_4
REMARK    2  A    between atoms: N_12  and  C_13
REMARK                            x       y       z     vdW  Elec       q    Type
REMARK                         _______ _______ _______ _____ _____    ______ ____
ROOT
ATOM      1  C   UNL     1       9.006  -1.335  23.251  0.00  0.00    +0.000 C 
ATOM      2  C   UNL     1       7.631  -1.526  22.897  0.00  0.00    +0.000 C 
ATOM      3  C   UNL     1       7.078  -0.745  21.740  0.00  0.00    +0.000 C 
ATOM      4  N   UNL     1       7.907   0.443  21.510  0.00  0.00    +0.000 N 
ATOM      5  C   UNL     1       9.340   0.178  21.268  0.00  0.00    +0.000 C 
ATOM      6  C   UNL     1       9.911  -0.474  22.508  0.00  0.00    +0.000 C 
ATOM      7  C   UNL     1       7.602   1.571  22.187  0.00  0.00    +0.000 C 
ATOM      8  O   UNL     1       6.625   1.686  22.870  0.00  0.00    +0.000 OA
ATOM      9  N   UNL     1       8.585   2.438  22.104  0.00  0.00    +0.000 NA
ENDROOT
BRANCH   9  10
ATOM     10  C   UNL     1       9.091   2.873  23.244  0.00  0.00    +0.000 A 
ATOM     11  C   UNL     1       8.414   4.335  23.595  0.00  0.00    +0.000 A 
ATOM     12  C   UNL     1       9.511   5.340  23.762  0.00  0.00    +0.000 A 
ATOM     13  C   UNL     1      10.982   5.378  23.766  0.00  0.00    +0.000 A 
ATOM     14  C   UNL     1      11.614   3.973  23.383  0.00  0.00    +0.000 A 
ATOM     15  C   UNL     1      10.560   2.959  23.309  0.00  0.00    +0.000 A 
ENDBRANCH   9  10
BRANCH   1  17
ATOM     16  N   UNL     1       9.757  -0.257  25.299  0.00  0.00    +0.000 NA
ATOM     17  C   UNL     1       9.294  -1.385  24.711  0.00  0.00    +0.000 C 
ATOM     18  O   UNL     1       8.923  -2.319  25.410  0.00  0.00    +0.000 OA
ENDBRANCH   1  17
TORSDOF 2
ENDMDL
