MODEL 1
REMARK VINA RESULT:      -5.9      0.000      0.000
REMARK  Name = 
REMARK  3 active torsions:
REMARK  status: ('A' for Active; 'I' for Inactive)
REMARK    1  A    between atoms: C_2  and  C_3
REMARK    2  A    between atoms: N_5  and  N_6
REMARK    3  A    between atoms: C_7  and  C_9
REMARK                            x       y       z     vdW  Elec       q    Type
REMARK                         _______ _______ _______ _____ _____    ______ ____
ROOT
ATOM      1  C   UNL     1       8.238   0.715  21.181  0.00  0.00    +0.000 C 
ATOM      2  C   UNL     1       7.778   2.177  21.393  0.00  0.00    +0.000 C 
ATOM      3  C   UNL     1       8.752   2.454  22.687  0.00  0.00    +0.000 C 
ATOM      4  C   UNL     1       7.475   2.760  23.672  0.00  0.00    +0.000 C 
ATOM      5  C   UNL     1       8.274   2.209  25.123  0.00  0.00    +0.000 C 
ATOM      6  C   UNL     1       9.372   1.281  24.750  0.00  0.00    +0.000 C 
ATOM      7  C   UNL     1      10.770   1.385  24.027  0.00  0.00    +0.000 C 
ATOM      8  C   UNL     1      10.067   1.915  22.566  0.00  0.00    +0.000 C 
ATOM      9  S   UNL     1       9.564   0.496  22.088  0.00  0.00    +0.000 S 
ENDROOT
BRANCH   1  11
ATOM     10  N   UNL     1       7.022  -0.992  20.399  0.00  0.00    +0.000 NA
ATOM     11  C   UNL     1       7.236  -0.276  21.552  0.00  0.00    +0.000 C 
ATOM     12  O   UNL     1       7.407  -0.914  22.587  0.00  0.00    +0.000 OA
BRANCH  10  15
ATOM     13  C   UNL     1       6.165  -0.235  18.506  0.00  0.00    +0.000 C 
ATOM     14  O   UNL     1       6.113  -1.151  17.688  0.00  0.00    +0.000 OA
ATOM     15  N   UNL     1       5.912  -0.523  19.811  0.00  0.00    +0.000 NA
BRANCH  13  17
ATOM     16 CL   UNL     1       4.474   1.749  19.251  0.00  0.00    +0.000 Cl
ATOM     17  C   UNL     1       5.672   1.151  18.091  0.00  0.00    +0.000 C 
ENDBRANCH  13  17
ENDBRANCH  10  15
ENDBRANCH   1  11
TORSDOF 3
ENDMDL
MODEL 2
REMARK VINA RESULT:      -5.9      4.375      5.830
REMARK  Name = 
REMARK  3 active torsions:
REMARK  status: ('A' for Active; 'I' for Inactive)
REMARK    1  A    between atoms: C_2  and  C_3
REMARK    2  A    between atoms: N_5  and  N_6
REMARK    3  A    between atoms: C_7  and  C_9
REMARK                            x       y       z     vdW  Elec       q    Type
REMARK                         _______ _______ _______ _____ _____    ______ ____
ROOT
ATOM      1  C   UNL     1       8.786  -1.237  23.960  0.00  0.00    +0.000 C 
ATOM      2  C   UNL     1       9.257  -0.227  25.033  0.00  0.00    +0.000 C 
ATOM      3  C   UNL     1       9.006   1.105  24.104  0.00  0.00    +0.000 C 
ATOM      4  C   UNL     1      10.589   1.533  24.165  0.00  0.00    +0.000 C 
ATOM      5  C   UNL     1      10.585   2.329  22.612  0.00  0.00    +0.000 C 
ATOM      6  C   UNL     1       9.465   1.796  21.796  0.00  0.00    +0.000 C 
ATOM      7  C   UNL     1       7.889   1.861  21.826  0.00  0.00    +0.000 C 
ATOM      8  C   UNL     1       7.804   1.076  23.337  0.00  0.00    +0.000 C 
ATOM      9  S   UNL     1       8.054  -0.386  22.791  0.00  0.00    +0.000 S 
ENDROOT
BRANCH   1  11
ATOM     10  N   UNL     1       9.435  -3.320  23.467  0.00  0.00    +0.000 NA
ATOM     11  C   UNL     1       9.868  -2.019  23.374  0.00  0.00    +0.000 C 
ATOM     12  O   UNL     1      10.330  -1.655  22.297  0.00  0.00    +0.000 OA
BRANCH  10  15
ATOM     13  C   UNL     1       9.177  -4.814  25.076  0.00  0.00    +0.000 C 
ATOM     14  O   UNL     1       9.179  -5.943  24.589  0.00  0.00    +0.000 OA
ATOM     15  N   UNL     1      10.010  -3.880  24.541  0.00  0.00    +0.000 NA
BRANCH  13  17
ATOM     16 CL   UNL     1       7.468  -5.384  27.103  0.00  0.00    +0.000 Cl
ATOM     17  C   UNL     1       9.004  -4.666  26.589  0.00  0.00    +0.000 C 
ENDBRANCH  13  17
ENDBRANCH  10  15
ENDBRANCH   1  11
TORSDOF 3
ENDMDL
MODEL 3
REMARK VINA RESULT:      -5.9      3.305      3.875
REMARK  Name = 
REMARK  3 active torsions:
REMARK  status: ('A' for Active; 'I' for Inactive)
REMARK    1  A    between atoms: C_2  and  C_3
REMARK    2  A    between atoms: N_5  and  N_6
REMARK    3  A    between atoms: C_7  and  C_9
REMARK                            x       y       z     vdW  Elec       q    Type
REMARK                         _______ _______ _______ _____ _____    ______ ____
ROOT
ATOM      1  C   UNL     1       8.478  -1.288  22.229  0.00  0.00    +0.000 C 
ATOM      2  C   UNL     1       9.230  -0.396  21.213  0.00  0.00    +0.000 C 
ATOM      3  C   UNL     1      10.062   0.453  22.347  0.00  0.00    +0.000 C 
ATOM      4  C   UNL     1       9.391   1.875  21.875  0.00  0.00    +0.000 C 
ATOM      5  C   UNL     1       9.494   2.616  23.452  0.00  0.00    +0.000 C 
ATOM      6  C   UNL     1       9.570   1.552  24.485  0.00  0.00    +0.000 C 
ATOM      7  C   UNL     1      10.616   0.461  24.936  0.00  0.00    +0.000 C 
ATOM      8  C   UNL     1      10.565  -0.331  23.427  0.00  0.00    +0.000 C 
ATOM      9  S   UNL     1       9.195  -1.082  23.668  0.00  0.00    +0.000 S 
ENDROOT
BRANCH   1  11
ATOM     10  N   UNL     1       6.492  -2.133  22.818  0.00  0.00    +0.000 NA
ATOM     11  C   UNL     1       7.061  -0.971  22.352  0.00  0.00    +0.000 C 
ATOM     12  O   UNL     1       6.746   0.074  22.914  0.00  0.00    +0.000 OA
BRANCH  10  15
ATOM     13  C   UNL     1       5.600  -4.044  22.153  0.00  0.00    +0.000 C 
ATOM     14  O   UNL     1       4.516  -4.202  22.710  0.00  0.00    +0.000 OA
ATOM     15  N   UNL     1       5.953  -2.785  21.777  0.00  0.00    +0.000 NA
BRANCH  13  17
ATOM     16 CL   UNL     1       7.375  -6.083  21.939  0.00  0.00    +0.000 Cl
ATOM     17  C   UNL     1       6.095  -5.120  21.185  0.00  0.00    +0.000 C 
ENDBRANCH  13  17
ENDBRANCH  10  15
ENDBRANCH   1  11
TORSDOF 3
ENDMDL
MODEL 4
REMARK VINA RESULT:      -5.6      4.298      5.799
REMARK  Name = 
REMARK  3 active torsions:
REMARK  status: ('A' for Active; 'I' for Inactive)
REMARK    1  A    between atoms: C_2  and  C_3
REMARK    2  A    between atoms: N_5  and  N_6
REMARK    3  A    between atoms: C_7  and  C_9
REMARK                            x       y       z     vdW  Elec       q    Type
REMARK                         _______ _______ _______ _____ _____    ______ ____
ROOT
ATOM      1  C   UNL     1       9.270  -1.412  24.781  0.00  0.00    +0.000 C 
ATOM      2  C   UNL     1       9.914  -1.884  23.456  0.00  0.00    +0.000 C 
ATOM      3  C   UNL     1      10.343  -0.379  22.955  0.00  0.00    +0.000 C 
ATOM      4  C   UNL     1       9.416  -0.487  21.605  0.00  0.00    +0.000 C 
ATOM      5  C   UNL     1       9.111   1.228  21.500  0.00  0.00    +0.000 C 
ATOM      6  C   UNL     1       9.302   1.839  22.840  0.00  0.00    +0.000 C 
ATOM      7  C   UNL     1      10.511   2.120  23.813  0.00  0.00    +0.000 C 
ATOM      8  C   UNL     1      10.868   0.461  23.981  0.00  0.00    +0.000 C 
ATOM      9  S   UNL     1       9.705   0.133  25.001  0.00  0.00    +0.000 S 
ENDROOT
BRANCH   1  11
ATOM     10  N   UNL     1       7.532  -2.258  25.908  0.00  0.00    +0.000 NA
ATOM     11  C   UNL     1       7.816  -1.505  24.794  0.00  0.00    +0.000 C 
ATOM     12  O   UNL     1       7.167  -0.476  24.630  0.00  0.00    +0.000 OA
BRANCH  10  15
ATOM     13  C   UNL     1       8.169  -4.360  26.165  0.00  0.00    +0.000 C 
ATOM     14  O   UNL     1       7.866  -4.742  27.294  0.00  0.00    +0.000 OA
ATOM     15  N   UNL     1       7.314  -3.522  25.518  0.00  0.00    +0.000 NA
BRANCH  13  17
ATOM     16 CL   UNL     1       8.134  -5.292  23.619  0.00  0.00    +0.000 Cl
ATOM     17  C   UNL     1       8.881  -5.333  25.225  0.00  0.00    +0.000 C 
ENDBRANCH  13  17
ENDBRANCH  10  15
ENDBRANCH   1  11
TORSDOF 3
ENDMDL
MODEL 5
REMARK VINA RESULT:      -5.6      3.253      4.088
REMARK  Name = 
REMARK  3 active torsions:
REMARK  status: ('A' for Active; 'I' for Inactive)
REMARK    1  A    between atoms: C_2  and  C_3
REMARK    2  A    between atoms: N_5  and  N_6
REMARK    3  A    between atoms: C_7  and  C_9
REMARK                            x       y       z     vdW  Elec       q    Type
REMARK                         _______ _______ _______ _____ _____    ______ ____
ROOT
ATOM      1  C   UNL     1       9.171  -0.815  22.207  0.00  0.00    +0.000 C 
ATOM      2  C   UNL     1       8.532  -0.121  20.981  0.00  0.00    +0.000 C 
ATOM      3  C   UNL     1       8.866   1.408  21.484  0.00  0.00    +0.000 C 
ATOM      4  C   UNL     1       7.276   1.815  21.529  0.00  0.00    +0.000 C 
ATOM      5  C   UNL     1       7.463   2.993  22.803  0.00  0.00    +0.000 C 
ATOM      6  C   UNL     1       8.698   2.687  23.570  0.00  0.00    +0.000 C 
ATOM      7  C   UNL     1      10.253   2.730  23.310  0.00  0.00    +0.000 C 
ATOM      8  C   UNL     1      10.159   1.574  22.061  0.00  0.00    +0.000 C 
ATOM      9  S   UNL     1      10.027   0.310  23.000  0.00  0.00    +0.000 S 
ENDROOT
BRANCH   1  11
ATOM     10  N   UNL     1       8.534  -2.740  23.153  0.00  0.00    +0.000 NA
ATOM     11  C   UNL     1       8.200  -1.407  23.119  0.00  0.00    +0.000 C 
ATOM     12  O   UNL     1       7.999  -0.849  24.194  0.00  0.00    +0.000 OA
BRANCH  10  15
ATOM     13  C   UNL     1       7.187  -4.482  22.959  0.00  0.00    +0.000 C 
ATOM     14  O   UNL     1       6.199  -4.314  23.669  0.00  0.00    +0.000 OA
ATOM     15  N   UNL     1       7.715  -3.401  22.323  0.00  0.00    +0.000 NA
BRANCH  13  17
ATOM     16 CL   UNL     1       6.158  -5.733  20.785  0.00  0.00    +0.000 Cl
ATOM     17  C   UNL     1       7.296  -5.770  22.141  0.00  0.00    +0.000 C 
ENDBRANCH  13  17
ENDBRANCH  10  15
ENDBRANCH   1  11
TORSDOF 3
ENDMDL
MODEL 6
REMARK VINA RESULT:      -5.6      3.967      5.481
REMARK  Name = 
REMARK  3 active torsions:
REMARK  status: ('A' for Active; 'I' for Inactive)
REMARK    1  A    between atoms: C_2  and  C_3
REMARK    2  A    between atoms: N_5  and  N_6
REMARK    3  A    between atoms: C_7  and  C_9
REMARK                            x       y       z     vdW  Elec       q    Type
REMARK                         _______ _______ _______ _____ _____    ______ ____
ROOT
ATOM      1  C   UNL     1       8.555  -1.669  23.812  0.00  0.00    +0.000 C 
ATOM      2  C   UNL     1       7.244  -1.758  22.994  0.00  0.00    +0.000 C 
ATOM      3  C   UNL     1       6.797  -3.224  23.589  0.00  0.00    +0.000 C 
ATOM      4  C   UNL     1       6.824  -3.915  22.101  0.00  0.00    +0.000 C 
ATOM      5  C   UNL     1       7.228  -5.509  22.686  0.00  0.00    +0.000 C 
ATOM      6  C   UNL     1       7.869  -5.388  24.021  0.00  0.00    +0.000 C 
ATOM      7  C   UNL     1       7.425  -4.972  25.476  0.00  0.00    +0.000 C 
ATOM      8  C   UNL     1       7.019  -3.389  24.988  0.00  0.00    +0.000 C 
ATOM      9  S   UNL     1       8.498  -2.836  24.935  0.00  0.00    +0.000 S 
ENDROOT
BRANCH   1  11
ATOM     10  N   UNL     1      10.295  -0.573  22.931  0.00  0.00    +0.000 NA
ATOM     11  C   UNL     1       9.760  -1.836  23.010  0.00  0.00    +0.000 C 
ATOM     12  O   UNL     1      10.524  -2.754  23.294  0.00  0.00    +0.000 OA
BRANCH  10  15
ATOM     13  C   UNL     1       9.461   1.221  21.943  0.00  0.00    +0.000 C 
ATOM     14  O   UNL     1      10.268   2.145  22.028  0.00  0.00    +0.000 OA
ATOM     15  N   UNL     1       9.942  -0.038  21.753  0.00  0.00    +0.000 NA
BRANCH  13  17
ATOM     16 CL   UNL     1       7.874   0.248  19.972  0.00  0.00    +0.000 Cl
ATOM     17  C   UNL     1       8.131   1.468  21.229  0.00  0.00    +0.000 C 
ENDBRANCH  13  17
ENDBRANCH  10  15
ENDBRANCH   1  11
TORSDOF 3
ENDMDL
MODEL 7
REMARK VINA RESULT:      -5.4      4.394      5.897
REMARK  Name = 
REMARK  3 active torsions:
REMARK  status: ('A' for Active; 'I' for Inactive)
REMARK    1  A    between atoms: C_2  and  C_3
REMARK    2  A    between atoms: N_5  and  N_6
REMARK    3  A    between atoms: C_7  and  C_9
REMARK                            x       y       z     vdW  Elec       q    Type
REMARK                         _______ _______ _______ _____ _____    ______ ____
ROOT
ATOM      1  C   UNL     1       8.303  -2.093  23.304  0.00  0.00    +0.000 C 
ATOM      2  C   UNL     1       7.672  -3.413  22.801  0.00  0.00    +0.000 C 
ATOM      3  C   UNL     1       6.970  -3.799  24.236  0.00  0.00    +0.000 C 
ATOM      4  C   UNL     1       7.824  -5.195  24.359  0.00  0.00    +0.000 C 
ATOM      5  C   UNL     1       7.832  -5.209  26.104  0.00  0.00    +0.000 C 
ATOM      6  C   UNL     1       7.618  -3.826  26.602  0.00  0.00    +0.000 C 
ATOM      7  C   UNL     1       6.437  -2.781  26.621  0.00  0.00    +0.000 C 
ATOM      8  C   UNL     1       6.372  -2.699  24.919  0.00  0.00    +0.000 C 
ATOM      9  S   UNL     1       7.629  -1.758  24.740  0.00  0.00    +0.000 S 
ENDROOT
BRANCH   1  11
ATOM     10  N   UNL     1      10.085  -0.943  24.015  0.00  0.00    +0.000 NA
ATOM     11  C   UNL     1       9.751  -2.155  23.460  0.00  0.00    +0.000 C 
ATOM     12  O   UNL     1      10.237  -3.161  23.968  0.00  0.00    +0.000 OA
BRANCH  10  15
ATOM     13  C   UNL     1      10.150   1.146  23.294  0.00  0.00    +0.000 C 
ATOM     14  O   UNL     1      10.853   1.816  24.048  0.00  0.00    +0.000 OA
ATOM     15  N   UNL     1      10.522  -0.137  23.036  0.00  0.00    +0.000 NA
BRANCH  13  17
ATOM     16 CL   UNL     1       8.757   0.628  21.026  0.00  0.00    +0.000 Cl
ATOM     17  C   UNL     1       9.495   1.833  22.094  0.00  0.00    +0.000 C 
ENDBRANCH  13  17
ENDBRANCH  10  15
ENDBRANCH   1  11
TORSDOF 3
ENDMDL
MODEL 8
REMARK VINA RESULT:      -5.3      3.848      4.691
REMARK  Name = 
REMARK  3 active torsions:
REMARK  status: ('A' for Active; 'I' for Inactive)
REMARK    1  A    between atoms: C_2  and  C_3
REMARK    2  A    between atoms: N_5  and  N_6
REMARK    3  A    between atoms: C_7  and  C_9
REMARK                            x       y       z     vdW  Elec       q    Type
REMARK                         _______ _______ _______ _____ _____    ______ ____
ROOT
ATOM      1  C   UNL     1       8.830  -1.956  23.301  0.00  0.00    +0.000 C 
ATOM      2  C   UNL     1       9.487  -1.632  21.939  0.00  0.00    +0.000 C 
ATOM      3  C   UNL     1       9.900  -0.091  22.336  0.00  0.00    +0.000 C 
ATOM      4  C   UNL     1       8.982   0.541  21.131  0.00  0.00    +0.000 C 
ATOM      5  C   UNL     1       8.656   2.039  21.965  0.00  0.00    +0.000 C 
ATOM      6  C   UNL     1       8.832   1.830  23.425  0.00  0.00    +0.000 C 
ATOM      7  C   UNL     1      10.031   1.549  24.410  0.00  0.00    +0.000 C 
ATOM      8  C   UNL     1      10.408   0.065  23.659  0.00  0.00    +0.000 C 
ATOM      9  S   UNL     1       9.244  -0.771  24.326  0.00  0.00    +0.000 S 
ENDROOT
BRANCH   1  11
ATOM     10  N   UNL     1       7.087  -3.224  23.899  0.00  0.00    +0.000 NA
ATOM     11  C   UNL     1       7.376  -2.051  23.244  0.00  0.00    +0.000 C 
ATOM     12  O   UNL     1       6.718  -1.060  23.546  0.00  0.00    +0.000 OA
BRANCH  10  15
ATOM     13  C   UNL     1       5.596  -4.602  23.023  0.00  0.00    +0.000 C 
ATOM     14  O   UNL     1       4.753  -3.953  22.408  0.00  0.00    +0.000 OA
ATOM     15  N   UNL     1       6.890  -4.182  22.982  0.00  0.00    +0.000 NA
BRANCH  13  17
ATOM     16 CL   UNL     1       4.823  -6.637  24.640  0.00  0.00    +0.000 Cl
ATOM     17  C   UNL     1       5.462  -6.125  23.070  0.00  0.00    +0.000 C 
ENDBRANCH  13  17
ENDBRANCH  10  15
ENDBRANCH   1  11
TORSDOF 3
ENDMDL
MODEL 9
REMARK VINA RESULT:      -5.3      4.632      6.009
REMARK  Name = 
REMARK  3 active torsions:
REMARK  status: ('A' for Active; 'I' for Inactive)
REMARK    1  A    between atoms: C_2  and  C_3
REMARK    2  A    between atoms: N_5  and  N_6
REMARK    3  A    between atoms: C_7  and  C_9
REMARK                            x       y       z     vdW  Elec       q    Type
REMARK                         _______ _______ _______ _____ _____    ______ ____
ROOT
ATOM      1  C   UNL     1       6.848  -1.894  23.458  0.00  0.00    +0.000 C 
ATOM      2  C   UNL     1       6.804  -0.502  24.132  0.00  0.00    +0.000 C 
ATOM      3  C   UNL     1       7.519   0.290  22.882  0.00  0.00    +0.000 C 
ATOM      4  C   UNL     1       8.780   0.771  23.817  0.00  0.00    +0.000 C 
ATOM      5  C   UNL     1       9.926   0.822  22.502  0.00  0.00    +0.000 C 
ATOM      6  C   UNL     1       9.447  -0.057  21.405  0.00  0.00    +0.000 C 
ATOM      7  C   UNL     1       8.261  -0.054  20.365  0.00  0.00    +0.000 C 
ATOM      8  C   UNL     1       7.077  -0.117  21.589  0.00  0.00    +0.000 C 
ATOM      9  S   UNL     1       7.226  -1.659  21.900  0.00  0.00    +0.000 S 
ENDROOT
BRANCH   1  11
ATOM     10  N   UNL     1       7.140  -3.993  24.174  0.00  0.00    +0.000 NA
ATOM     11  C   UNL     1       7.818  -2.804  24.053  0.00  0.00    +0.000 C 
ATOM     12  O   UNL     1       8.946  -2.846  23.570  0.00  0.00    +0.000 OA
BRANCH  10  15
ATOM     13  C   UNL     1       6.834  -5.391  25.860  0.00  0.00    +0.000 C 
ATOM     14  O   UNL     1       7.926  -5.755  26.290  0.00  0.00    +0.000 OA
ATOM     15  N   UNL     1       6.705  -4.104  25.438  0.00  0.00    +0.000 NA
BRANCH  13  17
ATOM     16 CL   UNL     1       4.654  -6.925  25.364  0.00  0.00    +0.000 Cl
ATOM     17  C   UNL     1       5.564  -5.936  26.517  0.00  0.00    +0.000 C 
ENDBRANCH  13  17
ENDBRANCH  10  15
ENDBRANCH   1  11
TORSDOF 3
ENDMDL
