MODEL 1
REMARK VINA RESULT:      -3.9      0.000      0.000
REMARK  Name = 
REMARK  0 active torsions:
REMARK  status: ('A' for Active; 'I' for Inactive)
REMARK                            x       y       z     vdW  Elec       q    Type
REMARK                         _______ _______ _______ _____ _____    ______ ____
ROOT
ATOM      1  O   UNL     1       5.706  -0.479  17.496  0.00  0.00    +0.000 OA
ATOM      2  C   UNL     1       6.334   0.656  17.948  0.00  0.00    +0.000 A 
ATOM      3  C   UNL     1       5.317   1.424  19.006  0.00  0.00    +0.000 A 
ATOM      4  C   UNL     1       5.938   1.527  20.345  0.00  0.00    +0.000 A 
ATOM      5  C   UNL     1       7.127   0.864  20.963  0.00  0.00    +0.000 A 
ATOM      6  C   UNL     1       7.949   0.156  19.813  0.00  0.00    +0.000 A 
ATOM      7  N   UNL     1       7.372   0.207  18.646  0.00  0.00    +0.000 NA
ENDROOT
TORSDOF 0
ENDMDL
MODEL 2
REMARK VINA RESULT:      -3.6      1.269      2.039
REMARK  Name = 
REMARK  0 active torsions:
REMARK  status: ('A' for Active; 'I' for Inactive)
REMARK                            x       y       z     vdW  Elec       q    Type
REMARK                         _______ _______ _______ _____ _____    ______ ____
ROOT
ATOM      1  O   UNL     1       6.252   1.272  17.364  0.00  0.00    +0.000 OA
ATOM      2  C   UNL     1       6.091   0.480  18.476  0.00  0.00    +0.000 A 
ATOM      3  C   UNL     1       7.586  -0.040  18.962  0.00  0.00    +0.000 A 
ATOM      4  C   UNL     1       7.879   0.424  20.335  0.00  0.00    +0.000 A 
ATOM      5  C   UNL     1       7.237   1.446  21.218  0.00  0.00    +0.000 A 
ATOM      6  C   UNL     1       5.849   1.847  20.576  0.00  0.00    +0.000 A 
ATOM      7  N   UNL     1       5.633   1.307  19.410  0.00  0.00    +0.000 NA
ENDROOT
TORSDOF 0
ENDMDL
MODEL 3
REMARK VINA RESULT:      -3.4      2.456      3.492
REMARK  Name = 
REMARK  0 active torsions:
REMARK  status: ('A' for Active; 'I' for Inactive)
REMARK                            x       y       z     vdW  Elec       q    Type
REMARK                         _______ _______ _______ _____ _____    ______ ____
ROOT
ATOM      1  O   UNL     1       7.723   0.198  19.289  0.00  0.00    +0.000 OA
ATOM      2  C   UNL     1       7.726   0.085  20.658  0.00  0.00    +0.000 A 
ATOM      3  C   UNL     1       9.199  -0.511  21.125  0.00  0.00    +0.000 A 
ATOM      4  C   UNL     1       9.891   0.447  22.015  0.00  0.00    +0.000 A 
ATOM      5  C   UNL     1       9.650   1.887  22.335  0.00  0.00    +0.000 A 
ATOM      6  C   UNL     1       8.223   2.282  21.781  0.00  0.00    +0.000 A 
ATOM      7  N   UNL     1       7.645   1.337  21.096  0.00  0.00    +0.000 NA
ENDROOT
TORSDOF 0
ENDMDL
MODEL 4
REMARK VINA RESULT:      -3.4      5.633      6.212
REMARK  Name = 
REMARK  0 active torsions:
REMARK  status: ('A' for Active; 'I' for Inactive)
REMARK                            x       y       z     vdW  Elec       q    Type
REMARK                         _______ _______ _______ _____ _____    ______ ____
ROOT
ATOM      1  O   UNL     1      11.237   3.336  23.400  0.00  0.00    +0.000 OA
ATOM      2  C   UNL     1      10.115   2.544  23.456  0.00  0.00    +0.000 A 
ATOM      3  C   UNL     1       9.922   1.814  21.982  0.00  0.00    +0.000 A 
ATOM      4  C   UNL     1       9.976   0.343  22.118  0.00  0.00    +0.000 A 
ATOM      5  C   UNL     1      10.421  -0.556  23.227  0.00  0.00    +0.000 A 
ATOM      6  C   UNL     1      10.589   0.319  24.532  0.00  0.00    +0.000 A 
ATOM      7  N   UNL     1      10.421   1.596  24.335  0.00  0.00    +0.000 NA
ENDROOT
TORSDOF 0
ENDMDL
MODEL 5
REMARK VINA RESULT:      -3.4      2.186      3.305
REMARK  Name = 
REMARK  0 active torsions:
REMARK  status: ('A' for Active; 'I' for Inactive)
REMARK                            x       y       z     vdW  Elec       q    Type
REMARK                         _______ _______ _______ _____ _____    ______ ____
ROOT
ATOM      1  O   UNL     1       6.837   0.374  22.256  0.00  0.00    +0.000 OA
ATOM      2  C   UNL     1       7.299   1.102  21.186  0.00  0.00    +0.000 A 
ATOM      3  C   UNL     1       8.086   0.069  20.158  0.00  0.00    +0.000 A 
ATOM      4  C   UNL     1       7.435   0.059  18.830  0.00  0.00    +0.000 A 
ATOM      5  C   UNL     1       6.114   0.563  18.346  0.00  0.00    +0.000 A 
ATOM      6  C   UNL     1       5.500   1.492  19.469  0.00  0.00    +0.000 A 
ATOM      7  N   UNL     1       6.199   1.520  20.568  0.00  0.00    +0.000 NA
ENDROOT
TORSDOF 0
ENDMDL
MODEL 6
REMARK VINA RESULT:      -3.3      4.625      5.366
REMARK  Name = 
REMARK  0 active torsions:
REMARK  status: ('A' for Active; 'I' for Inactive)
REMARK                            x       y       z     vdW  Elec       q    Type
REMARK                         _______ _______ _______ _____ _____    ______ ____
ROOT
ATOM      1  O   UNL     1       8.897  -1.581  22.744  0.00  0.00    +0.000 OA
ATOM      2  C   UNL     1      10.025  -0.869  22.416  0.00  0.00    +0.000 A 
ATOM      3  C   UNL     1       9.564   0.448  21.524  0.00  0.00    +0.000 A 
ATOM      4  C   UNL     1       9.957   1.701  22.204  0.00  0.00    +0.000 A 
ATOM      5  C   UNL     1      10.419   1.997  23.595  0.00  0.00    +0.000 A 
ATOM      6  C   UNL     1      10.773   0.626  24.297  0.00  0.00    +0.000 A 
ATOM      7  N   UNL     1      10.487  -0.422  23.578  0.00  0.00    +0.000 NA
ENDROOT
TORSDOF 0
ENDMDL
MODEL 7
REMARK VINA RESULT:      -3.3      3.316      4.074
REMARK  Name = 
REMARK  0 active torsions:
REMARK  status: ('A' for Active; 'I' for Inactive)
REMARK                            x       y       z     vdW  Elec       q    Type
REMARK                         _______ _______ _______ _____ _____    ______ ____
ROOT
ATOM      1  O   UNL     1       7.274  -0.525  20.980  0.00  0.00    +0.000 OA
ATOM      2  C   UNL     1       8.621  -0.320  20.804  0.00  0.00    +0.000 A 
ATOM      3  C   UNL     1       9.007   1.162  21.433  0.00  0.00    +0.000 A 
ATOM      4  C   UNL     1       9.996   1.025  22.523  0.00  0.00    +0.000 A 
ATOM      5  C   UNL     1      10.482  -0.152  23.308  0.00  0.00    +0.000 A 
ATOM      6  C   UNL     1       9.987  -1.466  22.581  0.00  0.00    +0.000 A 
ATOM      7  N   UNL     1       9.201  -1.241  21.566  0.00  0.00    +0.000 NA
ENDROOT
TORSDOF 0
ENDMDL
MODEL 8
REMARK VINA RESULT:      -3.3      5.190      5.999
REMARK  Name = 
REMARK  0 active torsions:
REMARK  status: ('A' for Active; 'I' for Inactive)
REMARK                            x       y       z     vdW  Elec       q    Type
REMARK                         _______ _______ _______ _____ _____    ______ ____
ROOT
ATOM      1  O   UNL     1      11.215   0.592  24.960  0.00  0.00    +0.000 OA
ATOM      2  C   UNL     1      10.026   1.018  24.418  0.00  0.00    +0.000 A 
ATOM      3  C   UNL     1      10.364   2.109  23.219  0.00  0.00    +0.000 A 
ATOM      4  C   UNL     1       9.850   1.629  21.918  0.00  0.00    +0.000 A 
ATOM      5  C   UNL     1       9.354   0.298  21.453  0.00  0.00    +0.000 A 
ATOM      6  C   UNL     1       9.128  -0.614  22.725  0.00  0.00    +0.000 A 
ATOM      7  N   UNL     1       9.516  -0.065  23.841  0.00  0.00    +0.000 NA
ENDROOT
TORSDOF 0
ENDMDL
MODEL 9
REMARK VINA RESULT:      -3.2      5.675      6.313
REMARK  Name = 
REMARK  0 active torsions:
REMARK  status: ('A' for Active; 'I' for Inactive)
REMARK                            x       y       z     vdW  Elec       q    Type
REMARK                         _______ _______ _______ _____ _____    ______ ____
ROOT
ATOM      1  O   UNL     1       6.028  -5.729  20.321  0.00  0.00    +0.000 OA
ATOM      2  C   UNL     1       5.848  -5.588  21.676  0.00  0.00    +0.000 A 
ATOM      3  C   UNL     1       7.330  -5.689  22.409  0.00  0.00    +0.000 A 
ATOM      4  C   UNL     1       7.635  -4.441  23.141  0.00  0.00    +0.000 A 
ATOM      5  C   UNL     1       7.020  -3.078  23.121  0.00  0.00    +0.000 A 
ATOM      6  C   UNL     1       5.643  -3.172  22.351  0.00  0.00    +0.000 A 
ATOM      7  N   UNL     1       5.412  -4.342  21.827  0.00  0.00    +0.000 NA
ENDROOT
TORSDOF 0
ENDMDL
