MODEL 1
REMARK VINA RESULT:      -5.7      0.000      0.000
REMARK  Name = 
REMARK  2 active torsions:
REMARK  status: ('A' for Active; 'I' for Inactive)
REMARK    1  A    between atoms: N_8  and  C_9
REMARK    2  A    between atoms: C_9  and  C_10
REMARK                            x       y       z     vdW  Elec       q    Type
REMARK                         _______ _______ _______ _____ _____    ______ ____
ROOT
ATOM      1  C   UNL     1       7.557  -5.363  22.761  0.00  0.00    +0.000 C 
ATOM      2  C   UNL     1       8.056  -4.631  23.918  0.00  0.00    +0.000 C 
ATOM      3  C   UNL     1       8.757  -5.376  24.973  0.00  0.00    +0.000 C 
ATOM      4  O   UNL     1      10.132  -5.056  24.950  0.00  0.00    +0.000 OA
ATOM      5  C   UNL     1       8.241  -4.994  26.363  0.00  0.00    +0.000 C 
ATOM      6  C   UNL     1       8.206  -3.471  26.453  0.00  0.00    +0.000 C 
ATOM      7  C   UNL     1       7.343  -2.912  25.339  0.00  0.00    +0.000 C 
ATOM      8  N   UNL     1       7.851  -3.299  24.053  0.00  0.00    +0.000 NA
ENDROOT
BRANCH   8   9
ATOM      9  C   UNL     1       8.875  -2.435  23.655  0.00  0.00    +0.000 C 
BRANCH   9  10
ATOM     10  C   UNL     1       8.824  -1.890  22.291  0.00  0.00    +0.000 A 
ATOM     11  C   UNL     1       7.252  -1.553  21.906  0.00  0.00    +0.000 A 
ATOM     12  C   UNL     1       7.164  -0.121  21.481  0.00  0.00    +0.000 A 
ATOM     13  C   UNL     1       8.069   0.995  21.178  0.00  0.00    +0.000 A 
ATOM     14  C   UNL     1       9.571   0.667  21.549  0.00  0.00    +0.000 A 
ATOM     15  C   UNL     1       9.683  -0.765  21.910  0.00  0.00    +0.000 A 
ENDBRANCH   9  10
ENDBRANCH   8   9
TORSDOF 2
ENDMDL
MODEL 2
REMARK VINA RESULT:      -5.6      1.027      1.616
REMARK  Name = 
REMARK  2 active torsions:
REMARK  status: ('A' for Active; 'I' for Inactive)
REMARK    1  A    between atoms: N_8  and  C_9
REMARK    2  A    between atoms: C_9  and  C_10
REMARK                            x       y       z     vdW  Elec       q    Type
REMARK                         _______ _______ _______ _____ _____    ______ ____
ROOT
ATOM      1  C   UNL     1       7.523  -5.348  22.875  0.00  0.00    +0.000 C 
ATOM      2  C   UNL     1       8.092  -4.563  23.963  0.00  0.00    +0.000 C 
ATOM      3  C   UNL     1       8.870  -5.257  24.998  0.00  0.00    +0.000 C 
ATOM      4  O   UNL     1      10.237  -4.928  24.867  0.00  0.00    +0.000 OA
ATOM      5  C   UNL     1       8.446  -4.819  26.403  0.00  0.00    +0.000 C 
ATOM      6  C   UNL     1       8.402  -3.294  26.431  0.00  0.00    +0.000 C 
ATOM      7  C   UNL     1       7.459  -2.789  25.356  0.00  0.00    +0.000 C 
ATOM      8  N   UNL     1       7.883  -3.228  24.055  0.00  0.00    +0.000 NA
ENDROOT
BRANCH   8   9
ATOM      9  C   UNL     1       8.868  -2.375  23.551  0.00  0.00    +0.000 C 
BRANCH   9  10
ATOM     10  C   UNL     1       8.581  -0.934  23.520  0.00  0.00    +0.000 A 
ATOM     11  C   UNL     1       9.819  -0.124  24.259  0.00  0.00    +0.000 A 
ATOM     12  C   UNL     1      10.344   0.908  23.311  0.00  0.00    +0.000 A 
ATOM     13  C   UNL     1       9.993   1.486  22.007  0.00  0.00    +0.000 A 
ATOM     14  C   UNL     1       8.809   0.707  21.305  0.00  0.00    +0.000 A 
ATOM     15  C   UNL     1       8.237  -0.274  22.257  0.00  0.00    +0.000 A 
ENDBRANCH   9  10
ENDBRANCH   8   9
TORSDOF 2
ENDMDL
MODEL 3
REMARK VINA RESULT:      -5.6      2.289      3.395
REMARK  Name = 
REMARK  2 active torsions:
REMARK  status: ('A' for Active; 'I' for Inactive)
REMARK    1  A    between atoms: N_8  and  C_9
REMARK    2  A    between atoms: C_9  and  C_10
REMARK                            x       y       z     vdW  Elec       q    Type
REMARK                         _______ _______ _______ _____ _____    ______ ____
ROOT
ATOM      1  C   UNL     1       6.417  -0.644  24.122  0.00  0.00    +0.000 C 
ATOM      2  C   UNL     1       6.819  -1.869  23.442  0.00  0.00    +0.000 C 
ATOM      3  C   UNL     1       5.774  -2.739  22.884  0.00  0.00    +0.000 C 
ATOM      4  O   UNL     1       5.804  -2.676  21.474  0.00  0.00    +0.000 OA
ATOM      5  C   UNL     1       6.008  -4.204  23.263  0.00  0.00    +0.000 C 
ATOM      6  C   UNL     1       7.466  -4.543  22.968  0.00  0.00    +0.000 C 
ATOM      7  C   UNL     1       8.375  -3.596  23.726  0.00  0.00    +0.000 C 
ATOM      8  N   UNL     1       8.121  -2.232  23.352  0.00  0.00    +0.000 NA
ENDROOT
BRANCH   8   9
ATOM      9  C   UNL     1       8.811  -1.912  22.180  0.00  0.00    +0.000 C 
BRANCH   9  10
ATOM     10  C   UNL     1       9.878  -0.905  22.263  0.00  0.00    +0.000 A 
ATOM     11  C   UNL     1       9.405   0.448  21.438  0.00  0.00    +0.000 A 
ATOM     12  C   UNL     1       9.504   1.623  22.359  0.00  0.00    +0.000 A 
ATOM     13  C   UNL     1      10.021   1.933  23.698  0.00  0.00    +0.000 A 
ATOM     14  C   UNL     1      10.472   0.635  24.482  0.00  0.00    +0.000 A 
ATOM     15  C   UNL     1      10.440  -0.526  23.562  0.00  0.00    +0.000 A 
ENDBRANCH   9  10
ENDBRANCH   8   9
TORSDOF 2
ENDMDL
MODEL 4
REMARK VINA RESULT:      -5.6      1.226      1.479
REMARK  Name = 
REMARK  2 active torsions:
REMARK  status: ('A' for Active; 'I' for Inactive)
REMARK    1  A    between atoms: N_8  and  C_9
REMARK    2  A    between atoms: C_9  and  C_10
REMARK                            x       y       z     vdW  Elec       q    Type
REMARK                         _______ _______ _______ _____ _____    ______ ____
ROOT
ATOM      1  C   UNL     1       7.299  -3.922  22.259  0.00  0.00    +0.000 C 
ATOM      2  C   UNL     1       7.984  -3.665  23.520  0.00  0.00    +0.000 C 
ATOM      3  C   UNL     1       8.016  -4.729  24.533  0.00  0.00    +0.000 C 
ATOM      4  O   UNL     1       9.324  -5.249  24.637  0.00  0.00    +0.000 OA
ATOM      5  C   UNL     1       7.645  -4.191  25.919  0.00  0.00    +0.000 C 
ATOM      6  C   UNL     1       8.462  -2.927  26.170  0.00  0.00    +0.000 C 
ATOM      7  C   UNL     1       8.200  -1.920  25.067  0.00  0.00    +0.000 C 
ATOM      8  N   UNL     1       8.549  -2.462  23.784  0.00  0.00    +0.000 NA
ENDROOT
BRANCH   8   9
ATOM      9  C   UNL     1       9.919  -2.318  23.551  0.00  0.00    +0.000 C 
BRANCH   9  10
ATOM     10  C   UNL     1      10.365  -1.165  22.757  0.00  0.00    +0.000 A 
ATOM     11  C   UNL     1       9.371  -1.000  21.445  0.00  0.00    +0.000 A 
ATOM     12  C   UNL     1       8.821   0.391  21.439  0.00  0.00    +0.000 A 
ATOM     13  C   UNL     1       9.016   1.656  22.159  0.00  0.00    +0.000 A 
ATOM     14  C   UNL     1       9.968   1.493  23.412  0.00  0.00    +0.000 A 
ATOM     15  C   UNL     1      10.570   0.139  23.394  0.00  0.00    +0.000 A 
ENDBRANCH   9  10
ENDBRANCH   8   9
TORSDOF 2
ENDMDL
MODEL 5
REMARK VINA RESULT:      -5.4      2.528      5.611
REMARK  Name = 
REMARK  2 active torsions:
REMARK  status: ('A' for Active; 'I' for Inactive)
REMARK    1  A    between atoms: N_8  and  C_9
REMARK    2  A    between atoms: C_9  and  C_10
REMARK                            x       y       z     vdW  Elec       q    Type
REMARK                         _______ _______ _______ _____ _____    ______ ____
ROOT
ATOM      1  C   UNL     1       7.573   0.163  19.397  0.00  0.00    +0.000 C 
ATOM      2  C   UNL     1       8.182   0.120  20.721  0.00  0.00    +0.000 C 
ATOM      3  C   UNL     1       8.458   1.388  21.410  0.00  0.00    +0.000 C 
ATOM      4  O   UNL     1       7.571   1.543  22.498  0.00  0.00    +0.000 OA
ATOM      5  C   UNL     1       9.874   1.410  21.992  0.00  0.00    +0.000 C 
ATOM      6  C   UNL     1      10.092   0.109  22.757  0.00  0.00    +0.000 C 
ATOM      7  C   UNL     1       9.862  -1.072  21.835  0.00  0.00    +0.000 C 
ATOM      8  N   UNL     1       8.529  -1.054  21.301  0.00  0.00    +0.000 NA
ENDROOT
BRANCH   8   9
ATOM      9  C   UNL     1       7.634  -1.625  22.209  0.00  0.00    +0.000 C 
BRANCH   9  10
ATOM     10  C   UNL     1       7.959  -2.950  22.756  0.00  0.00    +0.000 A 
ATOM     11  C   UNL     1       7.872  -2.885  24.407  0.00  0.00    +0.000 A 
ATOM     12  C   UNL     1       6.934  -3.953  24.874  0.00  0.00    +0.000 A 
ATOM     13  C   UNL     1       6.203  -5.099  24.316  0.00  0.00    +0.000 A 
ATOM     14  C   UNL     1       6.291  -5.156  22.738  0.00  0.00    +0.000 A 
ATOM     15  C   UNL     1       7.266  -4.145  22.267  0.00  0.00    +0.000 A 
ENDBRANCH   9  10
ENDBRANCH   8   9
TORSDOF 2
ENDMDL
MODEL 6
REMARK VINA RESULT:      -5.3      2.073      5.125
REMARK  Name = 
REMARK  2 active torsions:
REMARK  status: ('A' for Active; 'I' for Inactive)
REMARK    1  A    between atoms: N_8  and  C_9
REMARK    2  A    between atoms: C_9  and  C_10
REMARK                            x       y       z     vdW  Elec       q    Type
REMARK                         _______ _______ _______ _____ _____    ______ ____
ROOT
ATOM      1  C   UNL     1       7.146  -3.317  22.150  0.00  0.00    +0.000 C 
ATOM      2  C   UNL     1       7.923  -2.089  22.262  0.00  0.00    +0.000 C 
ATOM      3  C   UNL     1       7.465  -0.897  21.535  0.00  0.00    +0.000 C 
ATOM      4  O   UNL     1       6.972   0.059  22.450  0.00  0.00    +0.000 OA
ATOM      5  C   UNL     1       8.616  -0.228  20.778  0.00  0.00    +0.000 C 
ATOM      6  C   UNL     1       9.793  -0.083  21.738  0.00  0.00    +0.000 C 
ATOM      7  C   UNL     1      10.174  -1.442  22.291  0.00  0.00    +0.000 C 
ATOM      8  N   UNL     1       9.069  -2.042  22.985  0.00  0.00    +0.000 NA
ENDROOT
BRANCH   8   9
ATOM      9  C   UNL     1       8.997  -1.561  24.294  0.00  0.00    +0.000 C 
BRANCH   9  10
ATOM     10  C   UNL     1       8.838  -2.539  25.379  0.00  0.00    +0.000 A 
ATOM     11  C   UNL     1       7.276  -2.488  25.923  0.00  0.00    +0.000 A 
ATOM     12  C   UNL     1       6.705  -3.869  25.851  0.00  0.00    +0.000 A 
ATOM     13  C   UNL     1       7.163  -5.239  25.582  0.00  0.00    +0.000 A 
ATOM     14  C   UNL     1       8.656  -5.281  25.063  0.00  0.00    +0.000 A 
ATOM     15  C   UNL     1       9.255  -3.931  25.189  0.00  0.00    +0.000 A 
ENDBRANCH   9  10
ENDBRANCH   8   9
TORSDOF 2
ENDMDL
MODEL 7
REMARK VINA RESULT:      -5.3      1.933      2.798
REMARK  Name = 
REMARK  2 active torsions:
REMARK  status: ('A' for Active; 'I' for Inactive)
REMARK    1  A    between atoms: N_8  and  C_9
REMARK    2  A    between atoms: C_9  and  C_10
REMARK                            x       y       z     vdW  Elec       q    Type
REMARK                         _______ _______ _______ _____ _____    ______ ____
ROOT
ATOM      1  C   UNL     1       6.797  -2.458  22.468  0.00  0.00    +0.000 C 
ATOM      2  C   UNL     1       7.816  -1.905  23.352  0.00  0.00    +0.000 C 
ATOM      3  C   UNL     1       8.577  -2.824  24.210  0.00  0.00    +0.000 C 
ATOM      4  O   UNL     1       9.907  -2.918  23.746  0.00  0.00    +0.000 OA
ATOM      5  C   UNL     1       8.650  -2.309  25.651  0.00  0.00    +0.000 C 
ATOM      6  C   UNL     1       9.069  -0.843  25.610  0.00  0.00    +0.000 C 
ATOM      7  C   UNL     1       8.091  -0.055  24.761  0.00  0.00    +0.000 C 
ATOM      8  N   UNL     1       8.042  -0.571  23.421  0.00  0.00    +0.000 NA
ENDROOT
BRANCH   8   9
ATOM      9  C   UNL     1       9.087  -0.043  22.658  0.00  0.00    +0.000 C 
BRANCH   9  10
ATOM     10  C   UNL     1       8.741   0.840  21.535  0.00  0.00    +0.000 A 
ATOM     11  C   UNL     1       8.429  -0.086  20.201  0.00  0.00    +0.000 A 
ATOM     12  C   UNL     1       7.070   0.270  19.684  0.00  0.00    +0.000 A 
ATOM     13  C   UNL     1       6.028   1.275  19.928  0.00  0.00    +0.000 A 
ATOM     14  C   UNL     1       6.332   2.158  21.205  0.00  0.00    +0.000 A 
ATOM     15  C   UNL     1       7.700   1.861  21.688  0.00  0.00    +0.000 A 
ENDBRANCH   9  10
ENDBRANCH   8   9
TORSDOF 2
ENDMDL
MODEL 8
REMARK VINA RESULT:      -5.1      2.294      5.133
REMARK  Name = 
REMARK  2 active torsions:
REMARK  status: ('A' for Active; 'I' for Inactive)
REMARK    1  A    between atoms: N_8  and  C_9
REMARK    2  A    between atoms: C_9  and  C_10
REMARK                            x       y       z     vdW  Elec       q    Type
REMARK                         _______ _______ _______ _____ _____    ______ ____
ROOT
ATOM      1  C   UNL     1      10.061  -1.964  23.100  0.00  0.00    +0.000 C 
ATOM      2  C   UNL     1       9.236  -0.820  22.732  0.00  0.00    +0.000 C 
ATOM      3  C   UNL     1       9.666   0.026  21.610  0.00  0.00    +0.000 C 
ATOM      4  O   UNL     1       8.805  -0.169  20.508  0.00  0.00    +0.000 OA
ATOM      5  C   UNL     1       9.589   1.513  21.970  0.00  0.00    +0.000 C 
ATOM      6  C   UNL     1       8.222   1.778  22.595  0.00  0.00    +0.000 C 
ATOM      7  C   UNL     1       8.025   0.878  23.799  0.00  0.00    +0.000 C 
ATOM      8  N   UNL     1       8.114  -0.506  23.425  0.00  0.00    +0.000 NA
ENDROOT
BRANCH   8   9
ATOM      9  C   UNL     1       6.889  -0.955  22.924  0.00  0.00    +0.000 C 
BRANCH   9  10
ATOM     10  C   UNL     1       6.376  -2.242  23.414  0.00  0.00    +0.000 A 
ATOM     11  C   UNL     1       6.581  -3.384  22.235  0.00  0.00    +0.000 A 
ATOM     12  C   UNL     1       7.348  -4.530  22.815  0.00  0.00    +0.000 A 
ATOM     13  C   UNL     1       7.831  -4.982  24.127  0.00  0.00    +0.000 A 
ATOM     14  C   UNL     1       7.632  -3.885  25.250  0.00  0.00    +0.000 A 
ATOM     15  C   UNL     1       6.818  -2.773  24.706  0.00  0.00    +0.000 A 
ENDBRANCH   9  10
ENDBRANCH   8   9
TORSDOF 2
ENDMDL
MODEL 9
REMARK VINA RESULT:      -5.1      2.125      4.912
REMARK  Name = 
REMARK  2 active torsions:
REMARK  status: ('A' for Active; 'I' for Inactive)
REMARK    1  A    between atoms: N_8  and  C_9
REMARK    2  A    between atoms: C_9  and  C_10
REMARK                            x       y       z     vdW  Elec       q    Type
REMARK                         _______ _______ _______ _____ _____    ______ ____
ROOT
ATOM      1  C   UNL     1       6.465  -1.999  21.394  0.00  0.00    +0.000 C 
ATOM      2  C   UNL     1       7.458  -1.570  22.371  0.00  0.00    +0.000 C 
ATOM      3  C   UNL     1       7.494  -0.153  22.761  0.00  0.00    +0.000 C 
ATOM      4  O   UNL     1       7.029  -0.012  24.086  0.00  0.00    +0.000 OA
ATOM      5  C   UNL     1       8.924   0.395  22.736  0.00  0.00    +0.000 C 
ATOM      6  C   UNL     1       9.821  -0.585  23.486  0.00  0.00    +0.000 C 
ATOM      7  C   UNL     1       9.716  -1.960  22.856  0.00  0.00    +0.000 C 
ATOM      8  N   UNL     1       8.362  -2.437  22.887  0.00  0.00    +0.000 NA
ENDROOT
BRANCH   8   9
ATOM      9  C   UNL     1       8.079  -3.015  24.128  0.00  0.00    +0.000 C 
BRANCH   9  10
ATOM     10  C   UNL     1       7.483  -4.359  24.141  0.00  0.00    +0.000 A 
ATOM     11  C   UNL     1       5.859  -4.223  24.425  0.00  0.00    +0.000 A 
ATOM     12  C   UNL     1       5.125  -4.924  23.325  0.00  0.00    +0.000 A 
ATOM     13  C   UNL     1       5.426  -5.794  22.180  0.00  0.00    +0.000 A 
ATOM     14  C   UNL     1       6.980  -5.920  21.914  0.00  0.00    +0.000 A 
ATOM     15  C   UNL     1       7.719  -5.285  23.030  0.00  0.00    +0.000 A 
ENDBRANCH   9  10
ENDBRANCH   8   9
TORSDOF 2
ENDMDL
