MODEL 1
REMARK VINA RESULT:      -6.1      0.000      0.000
REMARK  Name = 
REMARK  3 active torsions:
REMARK  status: ('A' for Active; 'I' for Inactive)
REMARK    1  A    between atoms: C_6  and  C_7
REMARK    2  A    between atoms: C_7  and  N_8
REMARK    3  A    between atoms: C_14  and  C_16
REMARK                            x       y       z     vdW  Elec       q    Type
REMARK                         _______ _______ _______ _____ _____    ______ ____
ROOT
ATOM      1  N   UNL     1       7.938  -2.560  23.669  0.00  0.00    +0.000 NA
ATOM      2  C   UNL     1       7.917  -3.892  23.283  0.00  0.00    +0.000 C 
ATOM      3  C   UNL     1       6.959  -4.082  22.092  0.00  0.00    +0.000 C 
ATOM      4  N   UNL     1       5.610  -3.772  22.604  0.00  0.00    +0.000 N 
ATOM      5  C   UNL     1       5.480  -2.661  23.531  0.00  0.00    +0.000 C 
ATOM      6  C   UNL     1       6.745  -1.890  23.696  0.00  0.00    +0.000 C 
ATOM      7  C   UNL     1       4.813  -4.872  22.841  0.00  0.00    +0.000 C 
ATOM      8  O   UNL     1       3.627  -4.696  23.043  0.00  0.00    +0.000 OA
ENDROOT
BRANCH   7   9
ATOM      9  C   UNL     1       5.554  -6.010  23.526  0.00  0.00    +0.000 C 
ATOM     10 CL   UNL     1       5.442  -5.797  25.295  0.00  0.00    +0.000 Cl
ENDBRANCH   7   9
BRANCH   1  11
ATOM     11  C   UNL     1       8.907  -2.187  24.578  0.00  0.00    +0.000 C 
BRANCH  11  17
ATOM     12  C   UNL     1       8.527   0.114  20.766  0.00  0.00    +0.000 C 
ATOM     13  C   UNL     1       9.799   0.033  21.576  0.00  0.00    +0.000 A 
ATOM     14  C   UNL     1       9.984   1.468  22.364  0.00  0.00    +0.000 A 
ATOM     15  C   UNL     1      10.350   1.204  23.788  0.00  0.00    +0.000 A 
ATOM     16  C   UNL     1      10.174   0.032  24.727  0.00  0.00    +0.000 A 
ATOM     17  C   UNL     1      10.006  -1.335  23.972  0.00  0.00    +0.000 A 
ATOM     18  C   UNL     1       9.884  -1.080  22.523  0.00  0.00    +0.000 A 
ENDBRANCH  11  17
ENDBRANCH   1  11
TORSDOF 3
ENDMDL
MODEL 2
REMARK VINA RESULT:      -6.1      1.934      2.820
REMARK  Name = 
REMARK  3 active torsions:
REMARK  status: ('A' for Active; 'I' for Inactive)
REMARK    1  A    between atoms: C_6  and  C_7
REMARK    2  A    between atoms: C_7  and  N_8
REMARK    3  A    between atoms: C_14  and  C_16
REMARK                            x       y       z     vdW  Elec       q    Type
REMARK                         _______ _______ _______ _____ _____    ______ ____
ROOT
ATOM      1  N   UNL     1       8.153  -1.975  22.686  0.00  0.00    +0.000 NA
ATOM      2  C   UNL     1       7.019  -2.494  22.079  0.00  0.00    +0.000 C 
ATOM      3  C   UNL     1       5.893  -2.661  23.117  0.00  0.00    +0.000 C 
ATOM      4  N   UNL     1       6.367  -3.687  24.066  0.00  0.00    +0.000 N 
ATOM      5  C   UNL     1       7.769  -3.658  24.445  0.00  0.00    +0.000 C 
ATOM      6  C   UNL     1       8.489  -2.462  23.920  0.00  0.00    +0.000 C 
ATOM      7  C   UNL     1       5.795  -4.931  23.909  0.00  0.00    +0.000 C 
ATOM      8  O   UNL     1       5.958  -5.759  24.784  0.00  0.00    +0.000 OA
ENDROOT
BRANCH   7   9
ATOM      9  C   UNL     1       5.679  -5.356  22.453  0.00  0.00    +0.000 C 
ATOM     10 CL   UNL     1       7.203  -6.141  21.952  0.00  0.00    +0.000 Cl
ENDBRANCH   7   9
BRANCH   1  11
ATOM     11  C   UNL     1       9.175  -1.563  21.855  0.00  0.00    +0.000 C 
BRANCH  11  17
ATOM     12  C   UNL     1       5.957  -0.517  18.936  0.00  0.00    +0.000 C 
ATOM     13  C   UNL     1       7.012   0.455  19.409  0.00  0.00    +0.000 A 
ATOM     14  C   UNL     1       6.301   1.484  20.483  0.00  0.00    +0.000 A 
ATOM     15  C   UNL     1       7.184   1.632  21.680  0.00  0.00    +0.000 A 
ATOM     16  C   UNL     1       8.278   0.793  22.300  0.00  0.00    +0.000 A 
ATOM     17  C   UNL     1       8.957  -0.180  21.271  0.00  0.00    +0.000 A 
ATOM     18  C   UNL     1       8.213  -0.141  19.997  0.00  0.00    +0.000 A 
ENDBRANCH  11  17
ENDBRANCH   1  11
TORSDOF 3
ENDMDL
MODEL 3
REMARK VINA RESULT:      -6.0      2.098      2.572
REMARK  Name = 
REMARK  3 active torsions:
REMARK  status: ('A' for Active; 'I' for Inactive)
REMARK    1  A    between atoms: C_6  and  C_7
REMARK    2  A    between atoms: C_7  and  N_8
REMARK    3  A    between atoms: C_14  and  C_16
REMARK                            x       y       z     vdW  Elec       q    Type
REMARK                         _______ _______ _______ _____ _____    ______ ____
ROOT
ATOM      1  N   UNL     1       9.133  -1.091  24.437  0.00  0.00    +0.000 NA
ATOM      2  C   UNL     1       9.614  -2.308  23.977  0.00  0.00    +0.000 C 
ATOM      3  C   UNL     1       8.502  -3.068  23.231  0.00  0.00    +0.000 C 
ATOM      4  N   UNL     1       7.474  -3.379  24.244  0.00  0.00    +0.000 N 
ATOM      5  C   UNL     1       7.182  -2.363  25.240  0.00  0.00    +0.000 C 
ATOM      6  C   UNL     1       7.875  -1.070  24.973  0.00  0.00    +0.000 C 
ATOM      7  C   UNL     1       7.461  -4.689  24.674  0.00  0.00    +0.000 C 
ATOM      8  O   UNL     1       6.511  -5.075  25.327  0.00  0.00    +0.000 OA
ENDROOT
BRANCH   7   9
ATOM      9  C   UNL     1       8.853  -5.249  24.925  0.00  0.00    +0.000 C 
ATOM     10 CL   UNL     1       9.388  -4.769  26.560  0.00  0.00    +0.000 Cl
ENDBRANCH   7   9
BRANCH   1  11
ATOM     11  C   UNL     1      10.061  -0.199  24.935  0.00  0.00    +0.000 C 
BRANCH  11  17
ATOM     12  C   UNL     1       8.422   0.275  20.804  0.00  0.00    +0.000 C 
ATOM     13  C   UNL     1       9.268   1.316  21.498  0.00  0.00    +0.000 A 
ATOM     14  C   UNL     1       8.269   2.535  21.979  0.00  0.00    +0.000 A 
ATOM     15  C   UNL     1       8.592   2.909  23.389  0.00  0.00    +0.000 A 
ATOM     16  C   UNL     1       9.261   2.202  24.545  0.00  0.00    +0.000 A 
ATOM     17  C   UNL     1      10.219   1.046  24.082  0.00  0.00    +0.000 A 
ATOM     18  C   UNL     1      10.068   0.841  22.628  0.00  0.00    +0.000 A 
ENDBRANCH  11  17
ENDBRANCH   1  11
TORSDOF 3
ENDMDL
MODEL 4
REMARK VINA RESULT:      -6.0      2.435      3.046
REMARK  Name = 
REMARK  3 active torsions:
REMARK  status: ('A' for Active; 'I' for Inactive)
REMARK    1  A    between atoms: C_6  and  C_7
REMARK    2  A    between atoms: C_7  and  N_8
REMARK    3  A    between atoms: C_14  and  C_16
REMARK                            x       y       z     vdW  Elec       q    Type
REMARK                         _______ _______ _______ _____ _____    ______ ____
ROOT
ATOM      1  N   UNL     1       8.986  -2.508  24.303  0.00  0.00    +0.000 NA
ATOM      2  C   UNL     1       7.808  -2.291  25.002  0.00  0.00    +0.000 C 
ATOM      3  C   UNL     1       7.998  -2.660  26.485  0.00  0.00    +0.000 C 
ATOM      4  N   UNL     1       8.240  -4.116  26.513  0.00  0.00    +0.000 N 
ATOM      5  C   UNL     1       9.072  -4.680  25.463  0.00  0.00    +0.000 C 
ATOM      6  C   UNL     1       9.695  -3.642  24.594  0.00  0.00    +0.000 C 
ATOM      7  C   UNL     1       7.166  -4.875  26.926  0.00  0.00    +0.000 C 
ATOM      8  O   UNL     1       7.353  -6.047  27.192  0.00  0.00    +0.000 OA
ENDROOT
BRANCH   7   9
ATOM      9  C   UNL     1       5.846  -4.418  26.325  0.00  0.00    +0.000 C 
ATOM     10 CL   UNL     1       5.547  -5.324  24.816  0.00  0.00    +0.000 Cl
ENDBRANCH   7   9
BRANCH   1  11
ATOM     11  C   UNL     1       9.047  -2.022  23.013  0.00  0.00    +0.000 C 
BRANCH  11  17
ATOM     12  C   UNL     1       8.202   2.144  21.632  0.00  0.00    +0.000 C 
ATOM     13  C   UNL     1       9.590   1.611  21.898  0.00  0.00    +0.000 A 
ATOM     14  C   UNL     1      10.104   2.245  23.329  0.00  0.00    +0.000 A 
ATOM     15  C   UNL     1      10.711   1.160  24.158  0.00  0.00    +0.000 A 
ATOM     16  C   UNL     1      10.583  -0.346  24.190  0.00  0.00    +0.000 A 
ATOM     17  C   UNL     1      10.099  -0.947  22.822  0.00  0.00    +0.000 A 
ATOM     18  C   UNL     1       9.723   0.153  21.911  0.00  0.00    +0.000 A 
ENDBRANCH  11  17
ENDBRANCH   1  11
TORSDOF 3
ENDMDL
MODEL 5
REMARK VINA RESULT:      -5.9      1.655      2.119
REMARK  Name = 
REMARK  3 active torsions:
REMARK  status: ('A' for Active; 'I' for Inactive)
REMARK    1  A    between atoms: C_6  and  C_7
REMARK    2  A    between atoms: C_7  and  N_8
REMARK    3  A    between atoms: C_14  and  C_16
REMARK                            x       y       z     vdW  Elec       q    Type
REMARK                         _______ _______ _______ _____ _____    ______ ____
ROOT
ATOM      1  N   UNL     1       9.008  -2.267  23.624  0.00  0.00    +0.000 NA
ATOM      2  C   UNL     1       7.883  -2.265  22.813  0.00  0.00    +0.000 C 
ATOM      3  C   UNL     1       6.615  -2.456  23.667  0.00  0.00    +0.000 C 
ATOM      4  N   UNL     1       6.715  -3.811  24.243  0.00  0.00    +0.000 N 
ATOM      5  C   UNL     1       8.023  -4.258  24.691  0.00  0.00    +0.000 C 
ATOM      6  C   UNL     1       9.054  -3.182  24.640  0.00  0.00    +0.000 C 
ATOM      7  C   UNL     1       5.910  -4.757  23.644  0.00  0.00    +0.000 C 
ATOM      8  O   UNL     1       5.765  -5.829  24.199  0.00  0.00    +0.000 OA
ENDROOT
BRANCH   7   9
ATOM      9  C   UNL     1       5.907  -4.663  22.126  0.00  0.00    +0.000 C 
ATOM     10 CL   UNL     1       7.144  -5.772  21.471  0.00  0.00    +0.000 Cl
ENDBRANCH   7   9
BRANCH   1  11
ATOM     11  C   UNL     1      10.201  -1.890  23.040  0.00  0.00    +0.000 C 
BRANCH  11  17
ATOM     12  C   UNL     1       7.780   1.343  21.126  0.00  0.00    +0.000 C 
ATOM     13  C   UNL     1       9.039   1.594  21.923  0.00  0.00    +0.000 A 
ATOM     14  C   UNL     1       8.591   2.198  23.389  0.00  0.00    +0.000 A 
ATOM     15  C   UNL     1       9.354   1.496  24.464  0.00  0.00    +0.000 A 
ATOM     16  C   UNL     1      10.059   0.162  24.564  0.00  0.00    +0.000 A 
ATOM     17  C   UNL     1      10.491  -0.406  23.165  0.00  0.00    +0.000 A 
ATOM     18  C   UNL     1       9.925   0.442  22.098  0.00  0.00    +0.000 A 
ENDBRANCH  11  17
ENDBRANCH   1  11
TORSDOF 3
ENDMDL
MODEL 6
REMARK VINA RESULT:      -5.9      3.364      5.758
REMARK  Name = 
REMARK  3 active torsions:
REMARK  status: ('A' for Active; 'I' for Inactive)
REMARK    1  A    between atoms: C_6  and  C_7
REMARK    2  A    between atoms: C_7  and  N_8
REMARK    3  A    between atoms: C_14  and  C_16
REMARK                            x       y       z     vdW  Elec       q    Type
REMARK                         _______ _______ _______ _____ _____    ______ ____
ROOT
ATOM      1  N   UNL     1       9.661  -1.860  23.628  0.00  0.00    +0.000 NA
ATOM      2  C   UNL     1       9.406  -1.806  22.266  0.00  0.00    +0.000 C 
ATOM      3  C   UNL     1       9.808  -0.428  21.707  0.00  0.00    +0.000 C 
ATOM      4  N   UNL     1       8.900   0.547  22.343  0.00  0.00    +0.000 N 
ATOM      5  C   UNL     1       8.571   0.347  23.744  0.00  0.00    +0.000 C 
ATOM      6  C   UNL     1       9.354  -0.754  24.374  0.00  0.00    +0.000 C 
ATOM      7  C   UNL     1       7.888   1.013  21.530  0.00  0.00    +0.000 C 
ATOM      8  O   UNL     1       7.245   1.976  21.900  0.00  0.00    +0.000 OA
ENDROOT
BRANCH   7   9
ATOM      9  C   UNL     1       7.235  -0.083  20.702  0.00  0.00    +0.000 C 
ATOM     10 CL   UNL     1       7.539   0.235  18.972  0.00  0.00    +0.000 Cl
ENDBRANCH   7   9
BRANCH   1  11
ATOM     11  C   UNL     1       9.560  -3.096  24.235  0.00  0.00    +0.000 C 
BRANCH  11  17
ATOM     12  C   UNL     1       5.893  -5.586  23.669  0.00  0.00    +0.000 C 
ATOM     13  C   UNL     1       6.115  -4.672  24.851  0.00  0.00    +0.000 A 
ATOM     14  C   UNL     1       6.491  -5.613  26.150  0.00  0.00    +0.000 A 
ATOM     15  C   UNL     1       7.665  -5.023  26.861  0.00  0.00    +0.000 A 
ATOM     16  C   UNL     1       8.785  -4.089  26.463  0.00  0.00    +0.000 A 
ATOM     17  C   UNL     1       8.419  -3.188  25.230  0.00  0.00    +0.000 A 
ATOM     18  C   UNL     1       7.125  -3.628  24.671  0.00  0.00    +0.000 A 
ENDBRANCH  11  17
ENDBRANCH   1  11
TORSDOF 3
ENDMDL
MODEL 7
REMARK VINA RESULT:      -5.8      2.198      3.364
REMARK  Name = 
REMARK  3 active torsions:
REMARK  status: ('A' for Active; 'I' for Inactive)
REMARK    1  A    between atoms: C_6  and  C_7
REMARK    2  A    between atoms: C_7  and  N_8
REMARK    3  A    between atoms: C_14  and  C_16
REMARK                            x       y       z     vdW  Elec       q    Type
REMARK                         _______ _______ _______ _____ _____    ______ ____
ROOT
ATOM      1  N   UNL     1       8.634  -0.888  22.353  0.00  0.00    +0.000 NA
ATOM      2  C   UNL     1       7.536  -1.702  22.119  0.00  0.00    +0.000 C 
ATOM      3  C   UNL     1       7.080  -2.364  23.433  0.00  0.00    +0.000 C 
ATOM      4  N   UNL     1       8.184  -3.254  23.843  0.00  0.00    +0.000 N 
ATOM      5  C   UNL     1       9.542  -2.776  23.649  0.00  0.00    +0.000 C 
ATOM      6  C   UNL     1       9.600  -1.355  23.201  0.00  0.00    +0.000 C 
ATOM      7  C   UNL     1       7.962  -4.596  23.615  0.00  0.00    +0.000 C 
ATOM      8  O   UNL     1       8.715  -5.402  24.127  0.00  0.00    +0.000 OA
ENDROOT
BRANCH   7   9
ATOM      9  C   UNL     1       7.333  -4.875  22.259  0.00  0.00    +0.000 C 
ATOM     10 CL   UNL     1       6.094  -6.148  22.443  0.00  0.00    +0.000 Cl
ENDBRANCH   7   9
BRANCH   1  11
ATOM     11  C   UNL     1       9.026  -0.057  21.323  0.00  0.00    +0.000 C 
BRANCH  11  17
ATOM     12  C   UNL     1       6.999   1.561  24.963  0.00  0.00    +0.000 C 
ATOM     13  C   UNL     1       7.581   2.425  23.869  0.00  0.00    +0.000 A 
ATOM     14  C   UNL     1       8.990   3.065  24.434  0.00  0.00    +0.000 A 
ATOM     15  C   UNL     1      10.047   2.928  23.386  0.00  0.00    +0.000 A 
ATOM     16  C   UNL     1      10.245   2.019  22.194  0.00  0.00    +0.000 A 
ATOM     17  C   UNL     1       8.898   1.418  21.655  0.00  0.00    +0.000 A 
ATOM     18  C   UNL     1       7.802   1.765  22.582  0.00  0.00    +0.000 A 
ENDBRANCH  11  17
ENDBRANCH   1  11
TORSDOF 3
ENDMDL
MODEL 8
REMARK VINA RESULT:      -5.7      3.671      6.159
REMARK  Name = 
REMARK  3 active torsions:
REMARK  status: ('A' for Active; 'I' for Inactive)
REMARK    1  A    between atoms: C_6  and  C_7
REMARK    2  A    between atoms: C_7  and  N_8
REMARK    3  A    between atoms: C_14  and  C_16
REMARK                            x       y       z     vdW  Elec       q    Type
REMARK                         _______ _______ _______ _____ _____    ______ ____
ROOT
ATOM      1  N   UNL     1       8.518  -2.168  22.299  0.00  0.00    +0.000 NA
ATOM      2  C   UNL     1       7.774  -1.143  21.735  0.00  0.00    +0.000 C 
ATOM      3  C   UNL     1       8.653  -0.317  20.777  0.00  0.00    +0.000 C 
ATOM      4  N   UNL     1       9.681   0.324  21.620  0.00  0.00    +0.000 N 
ATOM      5  C   UNL     1      10.246  -0.459  22.706  0.00  0.00    +0.000 C 
ATOM      6  C   UNL     1       9.797  -1.881  22.692  0.00  0.00    +0.000 C 
ATOM      7  C   UNL     1       9.475   1.665  21.867  0.00  0.00    +0.000 C 
ATOM      8  O   UNL     1      10.382   2.310  22.355  0.00  0.00    +0.000 OA
ENDROOT
BRANCH   7   9
ATOM      9  C   UNL     1       8.026   1.996  22.191  0.00  0.00    +0.000 C 
ATOM     10 CL   UNL     1       7.775   1.849  23.953  0.00  0.00    +0.000 Cl
ENDBRANCH   7   9
BRANCH   1  11
ATOM     11  C   UNL     1       7.825  -3.127  23.010  0.00  0.00    +0.000 C 
BRANCH  11  17
ATOM     12  C   UNL     1       5.430  -3.154  26.784  0.00  0.00    +0.000 C 
ATOM     13  C   UNL     1       6.930  -3.330  26.737  0.00  0.00    +0.000 A 
ATOM     14  C   UNL     1       7.255  -4.925  26.994  0.00  0.00    +0.000 A 
ATOM     15  C   UNL     1       8.265  -5.387  25.994  0.00  0.00    +0.000 A 
ATOM     16  C   UNL     1       8.701  -4.906  24.629  0.00  0.00    +0.000 A 
ATOM     17  C   UNL     1       8.396  -3.384  24.392  0.00  0.00    +0.000 A 
ATOM     18  C   UNL     1       7.590  -2.867  25.516  0.00  0.00    +0.000 A 
ENDBRANCH  11  17
ENDBRANCH   1  11
TORSDOF 3
ENDMDL
MODEL 9
REMARK VINA RESULT:      -5.6      2.217      3.069
REMARK  Name = 
REMARK  3 active torsions:
REMARK  status: ('A' for Active; 'I' for Inactive)
REMARK    1  A    between atoms: C_6  and  C_7
REMARK    2  A    between atoms: C_7  and  N_8
REMARK    3  A    between atoms: C_14  and  C_16
REMARK                            x       y       z     vdW  Elec       q    Type
REMARK                         _______ _______ _______ _____ _____    ______ ____
ROOT
ATOM      1  N   UNL     1       8.035  -3.179  24.601  0.00  0.00    +0.000 NA
ATOM      2  C   UNL     1       6.653  -3.102  24.677  0.00  0.00    +0.000 C 
ATOM      3  C   UNL     1       6.187  -3.363  26.121  0.00  0.00    +0.000 C 
ATOM      4  N   UNL     1       6.547  -4.764  26.416  0.00  0.00    +0.000 N 
ATOM      5  C   UNL     1       7.819  -5.253  25.913  0.00  0.00    +0.000 C 
ATOM      6  C   UNL     1       8.653  -4.180  25.299  0.00  0.00    +0.000 C 
ATOM      7  C   UNL     1       5.491  -5.650  26.393  0.00  0.00    +0.000 C 
ATOM      8  O   UNL     1       5.662  -6.767  26.843  0.00  0.00    +0.000 OA
ENDROOT
BRANCH   7   9
ATOM      9  C   UNL     1       4.546  -5.423  25.223  0.00  0.00    +0.000 C 
ATOM     10 CL   UNL     1       5.015  -6.500  23.878  0.00  0.00    +0.000 Cl
ENDBRANCH   7   9
BRANCH   1  11
ATOM     11  C   UNL     1       8.622  -2.756  23.425  0.00  0.00    +0.000 C 
BRANCH  11  17
ATOM     12  C   UNL     1      11.031   0.872  24.429  0.00  0.00    +0.000 C 
ATOM     13  C   UNL     1       9.697   0.917  23.722  0.00  0.00    +0.000 A 
ATOM     14  C   UNL     1       9.985   1.230  22.130  0.00  0.00    +0.000 A 
ATOM     15  C   UNL     1       9.168   0.302  21.291  0.00  0.00    +0.000 A 
ATOM     16  C   UNL     1       8.526  -1.047  21.521  0.00  0.00    +0.000 A 
ATOM     17  C   UNL     1       8.246  -1.338  23.039  0.00  0.00    +0.000 A 
ATOM     18  C   UNL     1       8.859  -0.275  23.861  0.00  0.00    +0.000 A 
ENDBRANCH  11  17
ENDBRANCH   1  11
TORSDOF 3
ENDMDL
