MODEL 1
REMARK VINA RESULT:      -6.3      0.000      0.000
REMARK  Name = 
REMARK  3 active torsions:
REMARK  status: ('A' for Active; 'I' for Inactive)
REMARK    1  A    between atoms: C_2  and  N_3
REMARK    2  A    between atoms: C_2  and  C_8
REMARK    3  A    between atoms: C_4  and  C_6
REMARK                            x       y       z     vdW  Elec       q    Type
REMARK                         _______ _______ _______ _____ _____    ______ ____
ROOT
ATOM      1  C   UNL     1       9.343   0.660  21.620  0.00  0.00    +0.000 A 
ATOM      2  C   UNL     1       9.867  -0.825  21.557  0.00  0.00    +0.000 A 
ATOM      3  C   UNL     1       9.776  -1.499  22.922  0.00  0.00    +0.000 A 
ATOM      4  C   UNL     1       9.790  -0.866  24.333  0.00  0.00    +0.000 A 
ATOM      5  C   UNL     1       9.846   0.474  24.423  0.00  0.00    +0.000 A 
ATOM      6  C   UNL     1       8.851   1.433  25.031  0.00  0.00    +0.000 A 
ATOM      7  C   UNL     1       8.855   2.816  24.786  0.00  0.00    +0.000 A 
ATOM      8  C   UNL     1       9.335   3.512  23.507  0.00  0.00    +0.000 A 
ATOM      9  C   UNL     1      10.351   2.393  22.944  0.00  0.00    +0.000 A 
ATOM     10  C   UNL     1       9.808   1.133  22.901  0.00  0.00    +0.000 A 
ENDROOT
BRANCH   1  12
ATOM     11  C   UNL     1       7.189   1.851  21.486  0.00  0.00    +0.000 C 
ATOM     12  C   UNL     1       7.793   0.466  21.298  0.00  0.00    +0.000 C 
BRANCH  12  13
ATOM     13  N   UNL     1       7.665   0.043  19.925  0.00  0.00    +0.000 NA
ATOM     14  C   UNL     1       6.511  -0.607  19.603  0.00  0.00    +0.000 C 
ATOM     15  O   UNL     1       6.077  -1.437  20.375  0.00  0.00    +0.000 OA
BRANCH  14  16
ATOM     16  C   UNL     1       5.971  -0.425  18.215  0.00  0.00    +0.000 C 
ATOM     17 CL   UNL     1       5.984   1.314  17.793  0.00  0.00    +0.000 Cl
ENDBRANCH  14  16
ENDBRANCH  12  13
ENDBRANCH   1  12
TORSDOF 3
ENDMDL
MODEL 2
REMARK VINA RESULT:      -6.0      3.721      5.051
REMARK  Name = 
REMARK  3 active torsions:
REMARK  status: ('A' for Active; 'I' for Inactive)
REMARK    1  A    between atoms: C_2  and  N_3
REMARK    2  A    between atoms: C_2  and  C_8
REMARK    3  A    between atoms: C_4  and  C_6
REMARK                            x       y       z     vdW  Elec       q    Type
REMARK                         _______ _______ _______ _____ _____    ______ ____
ROOT
ATOM      1  C   UNL     1       8.783  -1.436  21.693  0.00  0.00    +0.000 A 
ATOM      2  C   UNL     1      10.212  -1.415  22.356  0.00  0.00    +0.000 A 
ATOM      3  C   UNL     1      10.489  -0.073  23.025  0.00  0.00    +0.000 A 
ATOM      4  C   UNL     1       9.900   1.322  22.710  0.00  0.00    +0.000 A 
ATOM      5  C   UNL     1       8.973   1.411  21.740  0.00  0.00    +0.000 A 
ATOM      6  C   UNL     1       7.536   1.866  21.833  0.00  0.00    +0.000 A 
ATOM      7  C   UNL     1       6.577   1.616  20.838  0.00  0.00    +0.000 A 
ATOM      8  C   UNL     1       6.544   0.414  19.886  0.00  0.00    +0.000 A 
ATOM      9  C   UNL     1       8.105   0.008  19.896  0.00  0.00    +0.000 A 
ATOM     10  C   UNL     1       8.634  -0.104  21.158  0.00  0.00    +0.000 A 
ENDROOT
BRANCH   1  12
ATOM     11  C   UNL     1       6.502  -2.167  22.278  0.00  0.00    +0.000 C 
ATOM     12  C   UNL     1       7.881  -1.974  22.894  0.00  0.00    +0.000 C 
BRANCH  12  13
ATOM     13  N   UNL     1       8.418  -3.239  23.332  0.00  0.00    +0.000 NA
ATOM     14  C   UNL     1       8.304  -3.511  24.663  0.00  0.00    +0.000 C 
ATOM     15  O   UNL     1       8.531  -2.623  25.459  0.00  0.00    +0.000 OA
BRANCH  14  16
ATOM     16  C   UNL     1       8.129  -4.945  25.070  0.00  0.00    +0.000 C 
ATOM     17 CL   UNL     1       8.066  -5.053  26.855  0.00  0.00    +0.000 Cl
ENDBRANCH  14  16
ENDBRANCH  12  13
ENDBRANCH   1  12
TORSDOF 3
ENDMDL
MODEL 3
REMARK VINA RESULT:      -5.8      3.590      4.919
REMARK  Name = 
REMARK  3 active torsions:
REMARK  status: ('A' for Active; 'I' for Inactive)
REMARK    1  A    between atoms: C_2  and  N_3
REMARK    2  A    between atoms: C_2  and  C_8
REMARK    3  A    between atoms: C_4  and  C_6
REMARK                            x       y       z     vdW  Elec       q    Type
REMARK                         _______ _______ _______ _____ _____    ______ ____
ROOT
ATOM      1  C   UNL     1       7.740  -0.253  23.860  0.00  0.00    +0.000 A 
ATOM      2  C   UNL     1       7.056  -1.193  22.797  0.00  0.00    +0.000 A 
ATOM      3  C   UNL     1       7.763  -1.104  21.448  0.00  0.00    +0.000 A 
ATOM      4  C   UNL     1       8.596   0.053  20.850  0.00  0.00    +0.000 A 
ATOM      5  C   UNL     1       8.790   1.148  21.607  0.00  0.00    +0.000 A 
ATOM      6  C   UNL     1      10.082   1.738  22.120  0.00  0.00    +0.000 A 
ATOM      7  C   UNL     1      10.146   2.683  23.156  0.00  0.00    +0.000 A 
ATOM      8  C   UNL     1       9.164   2.822  24.325  0.00  0.00    +0.000 A 
ATOM      9  C   UNL     1       7.856   2.139  23.673  0.00  0.00    +0.000 A 
ATOM     10  C   UNL     1       8.104   0.918  23.099  0.00  0.00    +0.000 A 
ENDROOT
BRANCH   1  12
ATOM     11  C   UNL     1       9.222  -0.561  25.806  0.00  0.00    +0.000 C 
ATOM     12  C   UNL     1       8.832  -1.228  24.494  0.00  0.00    +0.000 C 
BRANCH  12  13
ATOM     13  N   UNL     1       8.209  -2.504  24.743  0.00  0.00    +0.000 NA
ATOM     14  C   UNL     1       9.054  -3.555  24.946  0.00  0.00    +0.000 C 
ATOM     15  O   UNL     1      10.033  -3.659  24.236  0.00  0.00    +0.000 OA
BRANCH  14  16
ATOM     16  C   UNL     1       8.607  -4.641  25.881  0.00  0.00    +0.000 C 
ATOM     17 CL   UNL     1       6.829  -4.814  25.786  0.00  0.00    +0.000 Cl
ENDBRANCH  14  16
ENDBRANCH  12  13
ENDBRANCH   1  12
TORSDOF 3
ENDMDL
MODEL 4
REMARK VINA RESULT:      -5.5      3.565      5.284
REMARK  Name = 
REMARK  3 active torsions:
REMARK  status: ('A' for Active; 'I' for Inactive)
REMARK    1  A    between atoms: C_2  and  N_3
REMARK    2  A    between atoms: C_2  and  C_8
REMARK    3  A    between atoms: C_4  and  C_6
REMARK                            x       y       z     vdW  Elec       q    Type
REMARK                         _______ _______ _______ _____ _____    ______ ____
ROOT
ATOM      1  C   UNL     1       7.802  -3.459  23.023  0.00  0.00    +0.000 A 
ATOM      2  C   UNL     1       6.341  -3.284  22.460  0.00  0.00    +0.000 A 
ATOM      3  C   UNL     1       5.325  -3.171  23.592  0.00  0.00    +0.000 A 
ATOM      4  C   UNL     1       5.402  -3.713  25.038  0.00  0.00    +0.000 A 
ATOM      5  C   UNL     1       6.525  -4.347  25.416  0.00  0.00    +0.000 A 
ATOM      6  C   UNL     1       7.507  -3.983  26.504  0.00  0.00    +0.000 A 
ATOM      7  C   UNL     1       8.799  -4.527  26.597  0.00  0.00    +0.000 A 
ATOM      8  C   UNL     1       9.670  -5.011  25.432  0.00  0.00    +0.000 A 
ATOM      9  C   UNL     1       8.525  -5.333  24.342  0.00  0.00    +0.000 A 
ATOM     10  C   UNL     1       7.625  -4.310  24.175  0.00  0.00    +0.000 A 
ENDROOT
BRANCH   1  12
ATOM     11  C   UNL     1       9.795  -2.031  23.278  0.00  0.00    +0.000 C 
ATOM     12  C   UNL     1       8.280  -1.943  23.152  0.00  0.00    +0.000 C 
BRANCH  12  13
ATOM     13  N   UNL     1       7.916  -1.249  21.942  0.00  0.00    +0.000 NA
ATOM     14  C   UNL     1       7.614   0.074  22.077  0.00  0.00    +0.000 C 
ATOM     15  O   UNL     1       6.936   0.422  23.021  0.00  0.00    +0.000 OA
BRANCH  14  16
ATOM     16  C   UNL     1       7.946   0.986  20.932  0.00  0.00    +0.000 C 
ATOM     17 CL   UNL     1       7.765   0.098  19.390  0.00  0.00    +0.000 Cl
ENDBRANCH  14  16
ENDBRANCH  12  13
ENDBRANCH   1  12
TORSDOF 3
ENDMDL
MODEL 5
REMARK VINA RESULT:      -5.2      3.805      4.807
REMARK  Name = 
REMARK  3 active torsions:
REMARK  status: ('A' for Active; 'I' for Inactive)
REMARK    1  A    between atoms: C_2  and  N_3
REMARK    2  A    between atoms: C_2  and  C_8
REMARK    3  A    between atoms: C_4  and  C_6
REMARK                            x       y       z     vdW  Elec       q    Type
REMARK                         _______ _______ _______ _____ _____    ______ ____
ROOT
ATOM      1  C   UNL     1       9.741  -0.318  24.664  0.00  0.00    +0.000 A 
ATOM      2  C   UNL     1       9.168  -0.577  26.109  0.00  0.00    +0.000 A 
ATOM      3  C   UNL     1       7.857   0.173  26.324  0.00  0.00    +0.000 A 
ATOM      4  C   UNL     1       7.339   1.460  25.641  0.00  0.00    +0.000 A 
ATOM      5  C   UNL     1       8.099   2.016  24.681  0.00  0.00    +0.000 A 
ATOM      6  C   UNL     1       7.781   2.242  23.222  0.00  0.00    +0.000 A 
ATOM      7  C   UNL     1       8.753   2.530  22.251  0.00  0.00    +0.000 A 
ATOM      8  C   UNL     1      10.217   2.071  22.264  0.00  0.00    +0.000 A 
ATOM      9  C   UNL     1      10.422   1.836  23.846  0.00  0.00    +0.000 A 
ATOM     10  C   UNL     1       9.437   1.071  24.418  0.00  0.00    +0.000 A 
ENDROOT
BRANCH   1  12
ATOM     11  C   UNL     1       9.922  -1.632  22.586  0.00  0.00    +0.000 C 
ATOM     12  C   UNL     1       9.060  -1.498  23.834  0.00  0.00    +0.000 C 
BRANCH  12  13
ATOM     13  N   UNL     1       9.124  -2.703  24.622  0.00  0.00    +0.000 NA
ATOM     14  C   UNL     1       8.171  -3.642  24.362  0.00  0.00    +0.000 C 
ATOM     15  O   UNL     1       7.027  -3.276  24.187  0.00  0.00    +0.000 OA
BRANCH  14  16
ATOM     16  C   UNL     1       8.547  -5.085  24.532  0.00  0.00    +0.000 C 
ATOM     17 CL   UNL     1      10.023  -5.202  25.536  0.00  0.00    +0.000 Cl
ENDBRANCH  14  16
ENDBRANCH  12  13
ENDBRANCH   1  12
TORSDOF 3
ENDMDL
MODEL 6
REMARK VINA RESULT:      -5.2      3.398      3.976
REMARK  Name = 
REMARK  3 active torsions:
REMARK  status: ('A' for Active; 'I' for Inactive)
REMARK    1  A    between atoms: C_2  and  N_3
REMARK    2  A    between atoms: C_2  and  C_8
REMARK    3  A    between atoms: C_4  and  C_6
REMARK                            x       y       z     vdW  Elec       q    Type
REMARK                         _______ _______ _______ _____ _____    ______ ____
ROOT
ATOM      1  C   UNL     1       7.772  -1.184  22.383  0.00  0.00    +0.000 A 
ATOM      2  C   UNL     1       9.163  -1.584  21.761  0.00  0.00    +0.000 A 
ATOM      3  C   UNL     1      10.309  -1.227  22.702  0.00  0.00    +0.000 A 
ATOM      4  C   UNL     1      10.378  -0.137  23.796  0.00  0.00    +0.000 A 
ATOM      5  C   UNL     1       9.278   0.603  24.021  0.00  0.00    +0.000 A 
ATOM      6  C   UNL     1       8.449   0.725  25.277  0.00  0.00    +0.000 A 
ATOM      7  C   UNL     1       7.154   1.267  25.303  0.00  0.00    +0.000 A 
ATOM      8  C   UNL     1       6.129   1.233  24.162  0.00  0.00    +0.000 A 
ATOM      9  C   UNL     1       7.122   1.071  22.901  0.00  0.00    +0.000 A 
ATOM     10  C   UNL     1       8.043   0.065  23.054  0.00  0.00    +0.000 A 
ENDROOT
BRANCH   1  12
ATOM     11  C   UNL     1       5.915  -2.323  23.538  0.00  0.00    +0.000 C 
ATOM     12  C   UNL     1       7.383  -2.510  23.181  0.00  0.00    +0.000 C 
BRANCH  12  13
ATOM     13  N   UNL     1       7.546  -3.635  22.295  0.00  0.00    +0.000 NA
ATOM     14  C   UNL     1       7.732  -4.847  22.891  0.00  0.00    +0.000 C 
ATOM     15  O   UNL     1       8.472  -4.915  23.851  0.00  0.00    +0.000 OA
BRANCH  14  16
ATOM     16  C   UNL     1       7.192  -6.060  22.192  0.00  0.00    +0.000 C 
ATOM     17 CL   UNL     1       6.179  -5.550  20.808  0.00  0.00    +0.000 Cl
ENDBRANCH  14  16
ENDBRANCH  12  13
ENDBRANCH   1  12
TORSDOF 3
ENDMDL
MODEL 7
REMARK VINA RESULT:      -5.2      3.754      5.684
REMARK  Name = 
REMARK  3 active torsions:
REMARK  status: ('A' for Active; 'I' for Inactive)
REMARK    1  A    between atoms: C_2  and  N_3
REMARK    2  A    between atoms: C_2  and  C_8
REMARK    3  A    between atoms: C_4  and  C_6
REMARK                            x       y       z     vdW  Elec       q    Type
REMARK                         _______ _______ _______ _____ _____    ______ ____
ROOT
ATOM      1  C   UNL     1       7.121  -2.375  23.778  0.00  0.00    +0.000 A 
ATOM      2  C   UNL     1       8.215  -2.113  24.881  0.00  0.00    +0.000 A 
ATOM      3  C   UNL     1       9.178  -3.291  24.992  0.00  0.00    +0.000 A 
ATOM      4  C   UNL     1       8.951  -4.780  24.643  0.00  0.00    +0.000 A 
ATOM      5  C   UNL     1       7.762  -5.134  24.124  0.00  0.00    +0.000 A 
ATOM      6  C   UNL     1       7.452  -5.747  22.779  0.00  0.00    +0.000 A 
ATOM      7  C   UNL     1       6.165  -5.775  22.218  0.00  0.00    +0.000 A 
ATOM      8  C   UNL     1       5.050  -4.747  22.444  0.00  0.00    +0.000 A 
ATOM      9  C   UNL     1       5.506  -4.151  23.871  0.00  0.00    +0.000 A 
ATOM     10  C   UNL     1       6.826  -3.781  23.914  0.00  0.00    +0.000 A 
ENDROOT
BRANCH   1  12
ATOM     11  C   UNL     1       6.690  -1.576  21.485  0.00  0.00    +0.000 C 
ATOM     12  C   UNL     1       7.827  -1.776  22.478  0.00  0.00    +0.000 C 
BRANCH  12  13
ATOM     13  N   UNL     1       8.420  -0.510  22.827  0.00  0.00    +0.000 NA
ATOM     14  C   UNL     1       9.607  -0.216  22.225  0.00  0.00    +0.000 C 
ATOM     15  O   UNL     1      10.440  -1.093  22.123  0.00  0.00    +0.000 OA
BRANCH  14  16
ATOM     16  C   UNL     1       9.902   1.226  21.927  0.00  0.00    +0.000 C 
ATOM     17 CL   UNL     1       8.365   2.112  21.689  0.00  0.00    +0.000 Cl
ENDBRANCH  14  16
ENDBRANCH  12  13
ENDBRANCH   1  12
TORSDOF 3
ENDMDL
MODEL 8
REMARK VINA RESULT:      -5.2      1.644      2.823
REMARK  Name = 
REMARK  3 active torsions:
REMARK  status: ('A' for Active; 'I' for Inactive)
REMARK    1  A    between atoms: C_2  and  N_3
REMARK    2  A    between atoms: C_2  and  C_8
REMARK    3  A    between atoms: C_4  and  C_6
REMARK                            x       y       z     vdW  Elec       q    Type
REMARK                         _______ _______ _______ _____ _____    ______ ____
ROOT
ATOM      1  C   UNL     1       8.622   0.779  23.526  0.00  0.00    +0.000 A 
ATOM      2  C   UNL     1       9.513   0.987  22.243  0.00  0.00    +0.000 A 
ATOM      3  C   UNL     1      10.079  -0.339  21.746  0.00  0.00    +0.000 A 
ATOM      4  C   UNL     1      10.366  -1.640  22.530  0.00  0.00    +0.000 A 
ATOM      5  C   UNL     1      10.047  -1.674  23.836  0.00  0.00    +0.000 A 
ATOM      6  C   UNL     1       9.069  -2.569  24.558  0.00  0.00    +0.000 A 
ATOM      7  C   UNL     1       8.582  -2.306  25.848  0.00  0.00    +0.000 A 
ATOM      8  C   UNL     1       8.386  -0.923  26.483  0.00  0.00    +0.000 A 
ATOM      9  C   UNL     1       9.445  -0.067  25.619  0.00  0.00    +0.000 A 
ATOM     10  C   UNL     1       9.319  -0.247  24.264  0.00  0.00    +0.000 A 
ENDROOT
BRANCH   1  12
ATOM     11  C   UNL     1       6.211   1.157  23.873  0.00  0.00    +0.000 C 
ATOM     12  C   UNL     1       7.184   0.534  22.881  0.00  0.00    +0.000 C 
BRANCH  12  13
ATOM     13  N   UNL     1       7.129   1.228  21.619  0.00  0.00    +0.000 NA
ATOM     14  C   UNL     1       6.541   0.555  20.589  0.00  0.00    +0.000 C 
ATOM     15  O   UNL     1       6.791  -0.625  20.448  0.00  0.00    +0.000 OA
BRANCH  14  16
ATOM     16  C   UNL     1       5.801   1.359  19.561  0.00  0.00    +0.000 C 
ATOM     17 CL   UNL     1       5.596   0.382  18.076  0.00  0.00    +0.000 Cl
ENDBRANCH  14  16
ENDBRANCH  12  13
ENDBRANCH   1  12
TORSDOF 3
ENDMDL
MODEL 9
REMARK VINA RESULT:      -5.1      3.086      4.850
REMARK  Name = 
REMARK  3 active torsions:
REMARK  status: ('A' for Active; 'I' for Inactive)
REMARK    1  A    between atoms: C_2  and  N_3
REMARK    2  A    between atoms: C_2  and  C_8
REMARK    3  A    between atoms: C_4  and  C_6
REMARK                            x       y       z     vdW  Elec       q    Type
REMARK                         _______ _______ _______ _____ _____    ______ ____
ROOT
ATOM      1  C   UNL     1       9.837   1.332  22.934  0.00  0.00    +0.000 A 
ATOM      2  C   UNL     1       9.653   2.286  24.175  0.00  0.00    +0.000 A 
ATOM      3  C   UNL     1       8.364   1.969  24.926  0.00  0.00    +0.000 A 
ATOM      4  C   UNL     1       7.060   1.320  24.408  0.00  0.00    +0.000 A 
ATOM      5  C   UNL     1       7.020   0.919  23.125  0.00  0.00    +0.000 A 
ATOM      6  C   UNL     1       6.821  -0.469  22.564  0.00  0.00    +0.000 A 
ATOM      7  C   UNL     1       7.117  -0.820  21.237  0.00  0.00    +0.000 A 
ATOM      8  C   UNL     1       8.197  -0.191  20.348  0.00  0.00    +0.000 A 
ATOM      9  C   UNL     1       8.339   1.250  21.058  0.00  0.00    +0.000 A 
ATOM     10  C   UNL     1       8.498   1.177  22.419  0.00  0.00    +0.000 A 
ENDROOT
BRANCH   1  12
ATOM     11  C   UNL     1      11.327   0.722  24.801  0.00  0.00    +0.000 C 
ATOM     12  C   UNL     1      10.645   0.118  23.582  0.00  0.00    +0.000 C 
BRANCH  12  13
ATOM     13  N   UNL     1       9.698  -0.892  23.984  0.00  0.00    +0.000 NA
ATOM     14  C   UNL     1       9.936  -2.154  23.526  0.00  0.00    +0.000 C 
ATOM     15  O   UNL     1      10.290  -2.297  22.373  0.00  0.00    +0.000 OA
BRANCH  14  16
ATOM     16  C   UNL     1       9.531  -3.304  24.402  0.00  0.00    +0.000 C 
ATOM     17 CL   UNL     1       8.573  -2.691  25.784  0.00  0.00    +0.000 Cl
ENDBRANCH  14  16
ENDBRANCH  12  13
ENDBRANCH   1  12
TORSDOF 3
ENDMDL
