MODEL 1
REMARK VINA RESULT:      -5.5      0.000      0.000
REMARK  Name = 
REMARK  3 active torsions:
REMARK  status: ('A' for Active; 'I' for Inactive)
REMARK    1  A    between atoms: C_2  and  C_3
REMARK    2  A    between atoms: N_8  and  C_9
REMARK    3  A    between atoms: C_9  and  C_10
REMARK                            x       y       z     vdW  Elec       q    Type
REMARK                         _______ _______ _______ _____ _____    ______ ____
ROOT
ATOM      1  C   UNL     1       7.378   0.272  19.635  0.00  0.00    +0.000 C 
ATOM      2  O   UNL     1       7.950  -0.266  18.716  0.00  0.00    +0.000 OA
ATOM      3  N   UNL     1       7.896   0.305  20.874  0.00  0.00    +0.000 N 
ATOM      4  C   UNL     1       9.129  -0.409  21.167  0.00  0.00    +0.000 C 
ATOM      5  C   UNL     1       9.060  -0.928  22.598  0.00  0.00    +0.000 C 
ATOM      6  N   UNL     1       7.728  -1.254  22.959  0.00  0.00    +0.000 NA
ATOM      7  C   UNL     1       6.913  -0.111  23.063  0.00  0.00    +0.000 C 
ATOM      8  C   UNL     1       7.151   0.897  21.965  0.00  0.00    +0.000 C 
ENDROOT
BRANCH   1  10
ATOM      9 CL   UNL     1       5.814   1.362  17.726  0.00  0.00    +0.000 Cl
ATOM     10  C   UNL     1       6.047   0.969  19.450  0.00  0.00    +0.000 C 
ENDBRANCH   1  10
BRANCH   6  11
ATOM     11  C   UNL     1       7.180  -2.175  22.006  0.00  0.00    +0.000 C 
BRANCH  11  12
ATOM     12  C   UNL     1       6.955  -3.514  22.672  0.00  0.00    +0.000 A 
ATOM     13  C   UNL     1       7.196  -4.759  22.013  0.00  0.00    +0.000 A 
ATOM     14  C   UNL     1       6.188  -5.795  22.282  0.00  0.00    +0.000 A 
ATOM     15  C   UNL     1       4.924  -5.230  22.687  0.00  0.00    +0.000 A 
ATOM     16  S   UNL     1       5.280  -3.580  23.274  0.00  0.00    +0.000 S 
ENDBRANCH  11  12
ENDBRANCH   6  11
TORSDOF 3
ENDMDL
MODEL 2
REMARK VINA RESULT:      -5.4      3.264      5.492
REMARK  Name = 
REMARK  3 active torsions:
REMARK  status: ('A' for Active; 'I' for Inactive)
REMARK    1  A    between atoms: C_2  and  C_3
REMARK    2  A    between atoms: N_8  and  C_9
REMARK    3  A    between atoms: C_9  and  C_10
REMARK                            x       y       z     vdW  Elec       q    Type
REMARK                         _______ _______ _______ _____ _____    ______ ____
ROOT
ATOM      1  C   UNL     1       6.341  -4.031  22.339  0.00  0.00    +0.000 C 
ATOM      2  O   UNL     1       5.350  -3.612  21.786  0.00  0.00    +0.000 OA
ATOM      3  N   UNL     1       6.935  -3.359  23.338  0.00  0.00    +0.000 N 
ATOM      4  C   UNL     1       6.456  -2.038  23.714  0.00  0.00    +0.000 C 
ATOM      5  C   UNL     1       7.646  -1.200  24.163  0.00  0.00    +0.000 C 
ATOM      6  N   UNL     1       8.819  -1.558  23.452  0.00  0.00    +0.000 NA
ATOM      7  C   UNL     1       9.272  -2.847  23.793  0.00  0.00    +0.000 C 
ATOM      8  C   UNL     1       8.159  -3.856  23.931  0.00  0.00    +0.000 C 
ENDROOT
BRANCH   1  10
ATOM      9 CL   UNL     1       6.124  -6.032  20.543  0.00  0.00    +0.000 Cl
ATOM     10  C   UNL     1       6.967  -5.356  21.961  0.00  0.00    +0.000 C 
ENDBRANCH   1  10
BRANCH   6  11
ATOM     11  C   UNL     1       8.576  -1.470  22.041  0.00  0.00    +0.000 C 
BRANCH  11  12
ATOM     12  C   UNL     1       9.130  -0.165  21.516  0.00  0.00    +0.000 A 
ATOM     13  C   UNL     1      10.093   0.613  22.232  0.00  0.00    +0.000 A 
ATOM     14  C   UNL     1       9.862   2.064  22.180  0.00  0.00    +0.000 A 
ATOM     15  C   UNL     1       8.483   2.385  21.905  0.00  0.00    +0.000 A 
ATOM     16  S   UNL     1       7.773   0.929  21.150  0.00  0.00    +0.000 S 
ENDBRANCH  11  12
ENDBRANCH   6  11
TORSDOF 3
ENDMDL
MODEL 3
REMARK VINA RESULT:      -5.2      3.912      6.066
REMARK  Name = 
REMARK  3 active torsions:
REMARK  status: ('A' for Active; 'I' for Inactive)
REMARK    1  A    between atoms: C_2  and  C_3
REMARK    2  A    between atoms: N_8  and  C_9
REMARK    3  A    between atoms: C_9  and  C_10
REMARK                            x       y       z     vdW  Elec       q    Type
REMARK                         _______ _______ _______ _____ _____    ______ ____
ROOT
ATOM      1  C   UNL     1       8.282  -5.006  24.870  0.00  0.00    +0.000 C 
ATOM      2  O   UNL     1       9.344  -5.512  24.588  0.00  0.00    +0.000 OA
ATOM      3  N   UNL     1       7.249  -4.997  24.011  0.00  0.00    +0.000 N 
ATOM      4  C   UNL     1       7.419  -5.512  22.661  0.00  0.00    +0.000 C 
ATOM      5  C   UNL     1       6.545  -4.695  21.718  0.00  0.00    +0.000 C 
ATOM      6  N   UNL     1       6.436  -3.352  22.158  0.00  0.00    +0.000 NA
ATOM      7  C   UNL     1       5.695  -3.243  23.350  0.00  0.00    +0.000 C 
ATOM      8  C   UNL     1       6.015  -4.322  24.355  0.00  0.00    +0.000 C 
ENDROOT
BRANCH   1  10
ATOM      9 CL   UNL     1       8.574  -2.669  26.185  0.00  0.00    +0.000 Cl
ATOM     10  C   UNL     1       8.034  -4.368  26.219  0.00  0.00    +0.000 C 
ENDBRANCH   1  10
BRANCH   6  11
ATOM     11  C   UNL     1       7.745  -2.791  22.329  0.00  0.00    +0.000 C 
BRANCH  11  12
ATOM     12  C   UNL     1       7.664  -1.284  22.232  0.00  0.00    +0.000 A 
ATOM     13  C   UNL     1       7.405  -0.599  21.004  0.00  0.00    +0.000 A 
ATOM     14  C   UNL     1       8.201   0.621  20.809  0.00  0.00    +0.000 A 
ATOM     15  C   UNL     1       9.420   0.604  21.581  0.00  0.00    +0.000 A 
ATOM     16  S   UNL     1       9.163  -0.585  22.891  0.00  0.00    +0.000 S 
ENDBRANCH  11  12
ENDBRANCH   6  11
TORSDOF 3
ENDMDL
MODEL 4
REMARK VINA RESULT:      -5.1      2.000      2.262
REMARK  Name = 
REMARK  3 active torsions:
REMARK  status: ('A' for Active; 'I' for Inactive)
REMARK    1  A    between atoms: C_2  and  C_3
REMARK    2  A    between atoms: N_8  and  C_9
REMARK    3  A    between atoms: C_9  and  C_10
REMARK                            x       y       z     vdW  Elec       q    Type
REMARK                         _______ _______ _______ _____ _____    ______ ____
ROOT
ATOM      1  C   UNL     1       8.375   0.172  21.683  0.00  0.00    +0.000 C 
ATOM      2  O   UNL     1       8.665  -0.078  20.536  0.00  0.00    +0.000 OA
ATOM      3  N   UNL     1       9.019  -0.392  22.718  0.00  0.00    +0.000 N 
ATOM      4  C   UNL     1      10.027  -1.413  22.481  0.00  0.00    +0.000 C 
ATOM      5  C   UNL     1       9.979  -2.417  23.625  0.00  0.00    +0.000 C 
ATOM      6  N   UNL     1       8.660  -2.560  24.123  0.00  0.00    +0.000 NA
ATOM      7  C   UNL     1       8.214  -1.400  24.784  0.00  0.00    +0.000 C 
ATOM      8  C   UNL     1       8.599  -0.123  24.077  0.00  0.00    +0.000 C 
ENDROOT
BRANCH   1  10
ATOM      9 CL   UNL     1       7.930   2.816  21.984  0.00  0.00    +0.000 Cl
ATOM     10  C   UNL     1       7.280   1.156  22.034  0.00  0.00    +0.000 C 
ENDBRANCH   1  10
BRANCH   6  11
ATOM     11  C   UNL     1       7.770  -2.897  23.049  0.00  0.00    +0.000 C 
BRANCH  11  12
ATOM     12  C   UNL     1       7.584  -4.397  23.002  0.00  0.00    +0.000 A 
ATOM     13  C   UNL     1       7.126  -5.086  21.836  0.00  0.00    +0.000 A 
ATOM     14  C   UNL     1       6.172  -6.171  22.107  0.00  0.00    +0.000 A 
ATOM     15  C   UNL     1       5.487  -5.991  23.363  0.00  0.00    +0.000 A 
ATOM     16  S   UNL     1       6.501  -4.882  24.330  0.00  0.00    +0.000 S 
ENDBRANCH  11  12
ENDBRANCH   6  11
TORSDOF 3
ENDMDL
MODEL 5
REMARK VINA RESULT:      -4.9      3.211      3.766
REMARK  Name = 
REMARK  3 active torsions:
REMARK  status: ('A' for Active; 'I' for Inactive)
REMARK    1  A    between atoms: C_2  and  C_3
REMARK    2  A    between atoms: N_8  and  C_9
REMARK    3  A    between atoms: C_9  and  C_10
REMARK                            x       y       z     vdW  Elec       q    Type
REMARK                         _______ _______ _______ _____ _____    ______ ____
ROOT
ATOM      1  C   UNL     1       8.895   2.550  22.988  0.00  0.00    +0.000 C 
ATOM      2  O   UNL     1       8.173   2.769  22.042  0.00  0.00    +0.000 OA
ATOM      3  N   UNL     1       9.774   1.535  22.991  0.00  0.00    +0.000 N 
ATOM      4  C   UNL     1       9.806   0.594  21.882  0.00  0.00    +0.000 C 
ATOM      5  C   UNL     1      10.170  -0.782  22.424  0.00  0.00    +0.000 C 
ATOM      6  N   UNL     1       9.668  -0.962  23.737  0.00  0.00    +0.000 NA
ATOM      7  C   UNL     1      10.323  -0.139  24.673  0.00  0.00    +0.000 C 
ATOM      8  C   UNL     1      10.573   1.261  24.167  0.00  0.00    +0.000 C 
ENDROOT
BRANCH   1  10
ATOM      9 CL   UNL     1       9.880   4.869  23.953  0.00  0.00    +0.000 Cl
ATOM     10  C   UNL     1       8.876   3.421  24.225  0.00  0.00    +0.000 C 
ENDBRANCH   1  10
BRANCH   6  11
ATOM     11  C   UNL     1       8.255  -0.713  23.754  0.00  0.00    +0.000 C 
BRANCH  11  12
ATOM     12  C   UNL     1       7.515  -2.024  23.899  0.00  0.00    +0.000 A 
ATOM     13  C   UNL     1       8.157  -3.237  24.300  0.00  0.00    +0.000 A 
ATOM     14  C   UNL     1       7.707  -4.432  23.570  0.00  0.00    +0.000 A 
ATOM     15  C   UNL     1       7.144  -4.103  22.284  0.00  0.00    +0.000 A 
ATOM     16  S   UNL     1       6.675  -2.381  22.370  0.00  0.00    +0.000 S 
ENDBRANCH  11  12
ENDBRANCH   6  11
TORSDOF 3
ENDMDL
MODEL 6
REMARK VINA RESULT:      -4.9      4.107      6.212
REMARK  Name = 
REMARK  3 active torsions:
REMARK  status: ('A' for Active; 'I' for Inactive)
REMARK    1  A    between atoms: C_2  and  C_3
REMARK    2  A    between atoms: N_8  and  C_9
REMARK    3  A    between atoms: C_9  and  C_10
REMARK                            x       y       z     vdW  Elec       q    Type
REMARK                         _______ _______ _______ _____ _____    ______ ____
ROOT
ATOM      1  C   UNL     1       8.744  -2.926  23.614  0.00  0.00    +0.000 C 
ATOM      2  O   UNL     1       9.802  -3.427  23.916  0.00  0.00    +0.000 OA
ATOM      3  N   UNL     1       8.647  -1.996  22.649  0.00  0.00    +0.000 N 
ATOM      4  C   UNL     1       9.848  -1.484  22.007  0.00  0.00    +0.000 C 
ATOM      5  C   UNL     1       9.624  -0.018  21.660  0.00  0.00    +0.000 C 
ATOM      6  N   UNL     1       8.781   0.608  22.612  0.00  0.00    +0.000 NA
ATOM      7  C   UNL     1       7.459   0.127  22.546  0.00  0.00    +0.000 C 
ATOM      8  C   UNL     1       7.375  -1.368  22.361  0.00  0.00    +0.000 C 
ENDROOT
BRANCH   1  10
ATOM      9 CL   UNL     1       7.029  -4.999  23.820  0.00  0.00    +0.000 Cl
ATOM     10  C   UNL     1       7.448  -3.329  24.284  0.00  0.00    +0.000 C 
ENDBRANCH   1  10
BRANCH   6  11
ATOM     11  C   UNL     1       9.317   0.424  23.930  0.00  0.00    +0.000 C 
BRANCH  11  12
ATOM     12  C   UNL     1       9.455   1.768  24.609  0.00  0.00    +0.000 A 
ATOM     13  C   UNL     1       8.331   2.525  25.067  0.00  0.00    +0.000 A 
ATOM     14  C   UNL     1       8.434   3.971  24.824  0.00  0.00    +0.000 A 
ATOM     15  C   UNL     1       9.334   4.278  23.739  0.00  0.00    +0.000 A 
ATOM     16  S   UNL     1      10.394   2.851  23.553  0.00  0.00    +0.000 S 
ENDBRANCH  11  12
ENDBRANCH   6  11
TORSDOF 3
ENDMDL
MODEL 7
REMARK VINA RESULT:      -4.8      3.105      3.811
REMARK  Name = 
REMARK  3 active torsions:
REMARK  status: ('A' for Active; 'I' for Inactive)
REMARK    1  A    between atoms: C_2  and  C_3
REMARK    2  A    between atoms: N_8  and  C_9
REMARK    3  A    between atoms: C_9  and  C_10
REMARK                            x       y       z     vdW  Elec       q    Type
REMARK                         _______ _______ _______ _____ _____    ______ ____
ROOT
ATOM      1  C   UNL     1       7.633   1.971  23.490  0.00  0.00    +0.000 C 
ATOM      2  O   UNL     1       6.444   2.083  23.682  0.00  0.00    +0.000 OA
ATOM      3  N   UNL     1       8.129   1.619  22.293  0.00  0.00    +0.000 N 
ATOM      4  C   UNL     1       7.230   1.257  21.208  0.00  0.00    +0.000 C 
ATOM      5  C   UNL     1       7.897   0.178  20.366  0.00  0.00    +0.000 C 
ATOM      6  N   UNL     1       8.719  -0.657  21.163  0.00  0.00    +0.000 NA
ATOM      7  C   UNL     1       9.853   0.024  21.648  0.00  0.00    +0.000 C 
ATOM      8  C   UNL     1       9.554   1.426  22.117  0.00  0.00    +0.000 C 
ENDROOT
BRANCH   1  10
ATOM      9 CL   UNL     1       8.539   3.947  25.087  0.00  0.00    +0.000 Cl
ATOM     10  C   UNL     1       8.648   2.241  24.580  0.00  0.00    +0.000 C 
ENDBRANCH   1  10
BRANCH   6  11
ATOM     11  C   UNL     1       7.954  -1.194  22.252  0.00  0.00    +0.000 C 
BRANCH  11  12
ATOM     12  C   UNL     1       8.326  -2.644  22.461  0.00  0.00    +0.000 A 
ATOM     13  C   UNL     1       7.384  -3.713  22.336  0.00  0.00    +0.000 A 
ATOM     14  C   UNL     1       7.522  -4.767  23.352  0.00  0.00    +0.000 A 
ATOM     15  C   UNL     1       8.176  -4.288  24.545  0.00  0.00    +0.000 A 
ATOM     16  S   UNL     1       9.074  -2.819  24.068  0.00  0.00    +0.000 S 
ENDBRANCH  11  12
ENDBRANCH   6  11
TORSDOF 3
ENDMDL
MODEL 8
REMARK VINA RESULT:      -4.8      4.143      6.023
REMARK  Name = 
REMARK  3 active torsions:
REMARK  status: ('A' for Active; 'I' for Inactive)
REMARK    1  A    between atoms: C_2  and  C_3
REMARK    2  A    between atoms: N_8  and  C_9
REMARK    3  A    between atoms: C_9  and  C_10
REMARK                            x       y       z     vdW  Elec       q    Type
REMARK                         _______ _______ _______ _____ _____    ______ ____
ROOT
ATOM      1  C   UNL     1       5.829  -3.276  25.724  0.00  0.00    +0.000 C 
ATOM      2  O   UNL     1       5.857  -2.603  26.729  0.00  0.00    +0.000 OA
ATOM      3  N   UNL     1       6.733  -4.242  25.490  0.00  0.00    +0.000 N 
ATOM      4  C   UNL     1       7.847  -4.435  26.405  0.00  0.00    +0.000 C 
ATOM      5  C   UNL     1       9.060  -4.886  25.603  0.00  0.00    +0.000 C 
ATOM      6  N   UNL     1       9.055  -4.314  24.305  0.00  0.00    +0.000 NA
ATOM      7  C   UNL     1       8.016  -4.826  23.505  0.00  0.00    +0.000 C 
ATOM      8  C   UNL     1       6.710  -4.981  24.246  0.00  0.00    +0.000 C 
ENDROOT
BRANCH   1  10
ATOM      9 CL   UNL     1       3.261  -3.908  25.191  0.00  0.00    +0.000 Cl
ATOM     10  C   UNL     1       4.759  -3.093  24.670  0.00  0.00    +0.000 C 
ENDBRANCH   1  10
BRANCH   6  11
ATOM     11  C   UNL     1       8.953  -2.887  24.405  0.00  0.00    +0.000 C 
BRANCH  11  12
ATOM     12  C   UNL     1       8.963  -2.283  23.019  0.00  0.00    +0.000 A 
ATOM     13  C   UNL     1      10.090  -1.585  22.484  0.00  0.00    +0.000 A 
ATOM     14  C   UNL     1       9.750  -0.381  21.713  0.00  0.00    +0.000 A 
ATOM     15  C   UNL     1       8.462   0.154  22.082  0.00  0.00    +0.000 A 
ATOM     16  S   UNL     1       7.570  -1.184  22.861  0.00  0.00    +0.000 S 
ENDBRANCH  11  12
ENDBRANCH   6  11
TORSDOF 3
ENDMDL
MODEL 9
REMARK VINA RESULT:      -4.7      2.471      2.790
REMARK  Name = 
REMARK  3 active torsions:
REMARK  status: ('A' for Active; 'I' for Inactive)
REMARK    1  A    between atoms: C_2  and  C_3
REMARK    2  A    between atoms: N_8  and  C_9
REMARK    3  A    between atoms: C_9  and  C_10
REMARK                            x       y       z     vdW  Elec       q    Type
REMARK                         _______ _______ _______ _____ _____    ______ ____
ROOT
ATOM      1  C   UNL     1       8.575   0.208  21.733  0.00  0.00    +0.000 C 
ATOM      2  O   UNL     1       9.676  -0.043  21.300  0.00  0.00    +0.000 OA
ATOM      3  N   UNL     1       8.308   0.191  23.049  0.00  0.00    +0.000 N 
ATOM      4  C   UNL     1       9.326  -0.240  23.994  0.00  0.00    +0.000 C 
ATOM      5  C   UNL     1       8.641  -0.954  25.152  0.00  0.00    +0.000 C 
ATOM      6  N   UNL     1       7.479  -1.637  24.715  0.00  0.00    +0.000 NA
ATOM      7  C   UNL     1       6.458  -0.750  24.324  0.00  0.00    +0.000 C 
ATOM      8  C   UNL     1       6.962   0.429  23.527  0.00  0.00    +0.000 C 
ENDROOT
BRANCH   1  10
ATOM      9 CL   UNL     1       7.771   0.029  19.164  0.00  0.00    +0.000 Cl
ATOM     10  C   UNL     1       7.426   0.584  20.823  0.00  0.00    +0.000 C 
ENDBRANCH   1  10
BRANCH   6  11
ATOM     11  C   UNL     1       7.814  -2.521  23.636  0.00  0.00    +0.000 C 
BRANCH  11  12
ATOM     12  C   UNL     1       7.604  -3.953  24.074  0.00  0.00    +0.000 A 
ATOM     13  C   UNL     1       6.470  -4.372  24.838  0.00  0.00    +0.000 A 
ATOM     14  C   UNL     1       6.776  -5.344  25.897  0.00  0.00    +0.000 A 
ATOM     15  C   UNL     1       8.156  -5.280  26.312  0.00  0.00    +0.000 A 
ATOM     16  S   UNL     1       9.043  -4.495  24.973  0.00  0.00    +0.000 S 
ENDBRANCH  11  12
ENDBRANCH   6  11
TORSDOF 3
ENDMDL
