MODEL 1
REMARK VINA RESULT:      -6.2      0.000      0.000
REMARK  Name = 
REMARK  3 active torsions:
REMARK  status: ('A' for Active; 'I' for Inactive)
REMARK    1  A    between atoms: C_5  and  N_8
REMARK    2  A    between atoms: N_8  and  C_9
REMARK    3  A    between atoms: C_16  and  C_18
REMARK                            x       y       z     vdW  Elec       q    Type
REMARK                         _______ _______ _______ _____ _____    ______ ____
ROOT
ATOM      1  N   UNL     1       8.529  -1.665  22.231  0.00  0.00    +0.000 N 
ATOM      2  C   UNL     1       9.763  -1.183  22.405  0.00  0.00    +0.000 C 
ATOM      3  O   UNL     1      10.723  -1.953  22.323  0.00  0.00    +0.000 OA
ENDROOT
BRANCH   1   8
ATOM      4  C   UNL     1       4.367  -3.754  24.234  0.00  0.00    +0.000 C 
ATOM      5  C   UNL     1       5.815  -3.928  24.585  0.00  0.00    +0.000 A 
ATOM      6  C   UNL     1       6.379  -2.482  25.127  0.00  0.00    +0.000 A 
ATOM      7  C   UNL     1       7.616  -2.137  24.381  0.00  0.00    +0.000 A 
ATOM      8  C   UNL     1       8.378  -2.642  23.216  0.00  0.00    +0.000 A 
ATOM      9  C   UNL     1       7.846  -3.970  22.685  0.00  0.00    +0.000 A 
ATOM     10  C   UNL     1       6.704  -4.491  23.564  0.00  0.00    +0.000 A 
ENDBRANCH   1   8
BRANCH   1  11
ATOM     11  C   UNL     1       7.399  -0.835  21.911  0.00  0.00    +0.000 C 
ATOM     12  C   UNL     1       7.915   0.345  21.030  0.00  0.00    +0.000 C 
ATOM     13  S   UNL     1       6.912   0.194  19.501  0.00  0.00    +0.000 S 
ATOM     14  O   UNL     1       7.776  -0.080  18.437  0.00  0.00    +0.000 OA
ATOM     15  O   UNL     1       6.036   1.293  19.467  0.00  0.00    +0.000 OA
ATOM     16  C   UNL     1       5.925  -1.307  19.853  0.00  0.00    +0.000 C 
ATOM     17  C   UNL     1       6.357  -1.621  21.193  0.00  0.00    +0.000 C 
ENDBRANCH   1  11
BRANCH   2  18
ATOM     18  C   UNL     1       9.946   0.202  22.944  0.00  0.00    +0.000 C 
ATOM     19 CL   UNL     1      10.431   0.198  24.647  0.00  0.00    +0.000 Cl
ENDBRANCH   2  18
TORSDOF 3
ENDMDL
MODEL 2
REMARK VINA RESULT:      -6.2      3.076      5.323
REMARK  Name = 
REMARK  3 active torsions:
REMARK  status: ('A' for Active; 'I' for Inactive)
REMARK    1  A    between atoms: C_5  and  N_8
REMARK    2  A    between atoms: N_8  and  C_9
REMARK    3  A    between atoms: C_16  and  C_18
REMARK                            x       y       z     vdW  Elec       q    Type
REMARK                         _______ _______ _______ _____ _____    ______ ____
ROOT
ATOM      1  N   UNL     1       7.587  -0.291  20.781  0.00  0.00    +0.000 N 
ATOM      2  C   UNL     1       7.149  -0.309  19.519  0.00  0.00    +0.000 C 
ATOM      3  O   UNL     1       7.967  -0.214  18.601  0.00  0.00    +0.000 OA
ENDROOT
BRANCH   1   8
ATOM      4  C   UNL     1       8.691   2.440  24.906  0.00  0.00    +0.000 C 
ATOM      5  C   UNL     1       8.888   2.744  23.451  0.00  0.00    +0.000 A 
ATOM      6  C   UNL     1       7.404   2.834  22.750  0.00  0.00    +0.000 A 
ATOM      7  C   UNL     1       7.381   1.954  21.554  0.00  0.00    +0.000 A 
ATOM      8  C   UNL     1       8.245   0.931  20.920  0.00  0.00    +0.000 A 
ATOM      9  C   UNL     1       9.616   0.818  21.580  0.00  0.00    +0.000 A 
ATOM     10  C   UNL     1       9.780   1.868  22.683  0.00  0.00    +0.000 A 
ENDBRANCH   1   8
BRANCH   1  11
ATOM     11  C   UNL     1       6.812  -0.782  21.889  0.00  0.00    +0.000 C 
ATOM     12  C   UNL     1       6.153  -2.125  21.445  0.00  0.00    +0.000 C 
ATOM     13  S   UNL     1       6.764  -3.322  22.693  0.00  0.00    +0.000 S 
ATOM     14  O   UNL     1       7.545  -4.278  22.036  0.00  0.00    +0.000 OA
ATOM     15  O   UNL     1       5.665  -3.697  23.486  0.00  0.00    +0.000 OA
ATOM     16  C   UNL     1       7.863  -2.270  23.709  0.00  0.00    +0.000 C 
ATOM     17  C   UNL     1       7.676  -0.982  23.086  0.00  0.00    +0.000 C 
ENDBRANCH   1  11
BRANCH   2  18
ATOM     18  C   UNL     1       5.682  -0.184  19.244  0.00  0.00    +0.000 C 
ATOM     19 CL   UNL     1       5.230   1.460  18.768  0.00  0.00    +0.000 Cl
ENDBRANCH   2  18
TORSDOF 3
ENDMDL
MODEL 3
REMARK VINA RESULT:      -5.9      3.445      5.014
REMARK  Name = 
REMARK  3 active torsions:
REMARK  status: ('A' for Active; 'I' for Inactive)
REMARK    1  A    between atoms: C_5  and  N_8
REMARK    2  A    between atoms: N_8  and  C_9
REMARK    3  A    between atoms: C_16  and  C_18
REMARK                            x       y       z     vdW  Elec       q    Type
REMARK                         _______ _______ _______ _____ _____    ______ ____
ROOT
ATOM      1  N   UNL     1       7.752  -3.108  24.517  0.00  0.00    +0.000 N 
ATOM      2  C   UNL     1       7.747  -3.850  25.627  0.00  0.00    +0.000 C 
ATOM      3  O   UNL     1       7.424  -3.326  26.696  0.00  0.00    +0.000 OA
ENDROOT
BRANCH   1   8
ATOM      4  C   UNL     1       9.437   0.651  21.563  0.00  0.00    +0.000 C 
ATOM      5  C   UNL     1       9.826   0.252  22.955  0.00  0.00    +0.000 A 
ATOM      6  C   UNL     1      10.497  -1.247  22.881  0.00  0.00    +0.000 A 
ATOM      7  C   UNL     1       9.825  -2.126  23.871  0.00  0.00    +0.000 A 
ATOM      8  C   UNL     1       8.653  -2.074  24.775  0.00  0.00    +0.000 A 
ATOM      9  C   UNL     1       8.004  -0.695  24.832  0.00  0.00    +0.000 A 
ATOM     10  C   UNL     1       8.798   0.318  23.999  0.00  0.00    +0.000 A 
ENDBRANCH   1   8
BRANCH   1  11
ATOM     11  C   UNL     1       7.716  -3.671  23.194  0.00  0.00    +0.000 C 
ATOM     12  C   UNL     1       6.869  -4.979  23.262  0.00  0.00    +0.000 C 
ATOM     13  S   UNL     1       5.537  -4.677  22.037  0.00  0.00    +0.000 S 
ATOM     14  O   UNL     1       4.315  -4.661  22.716  0.00  0.00    +0.000 OA
ATOM     15  O   UNL     1       5.760  -5.546  20.954  0.00  0.00    +0.000 OA
ATOM     16  C   UNL     1       5.920  -2.975  21.485  0.00  0.00    +0.000 C 
ATOM     17  C   UNL     1       7.127  -2.702  22.228  0.00  0.00    +0.000 C 
ENDBRANCH   1  11
BRANCH   2  18
ATOM     18  C   UNL     1       8.370  -5.212  25.608  0.00  0.00    +0.000 C 
ATOM     19 CL   UNL     1      10.139  -5.138  25.630  0.00  0.00    +0.000 Cl
ENDBRANCH   2  18
TORSDOF 3
ENDMDL
MODEL 4
REMARK VINA RESULT:      -5.7      3.341      5.183
REMARK  Name = 
REMARK  3 active torsions:
REMARK  status: ('A' for Active; 'I' for Inactive)
REMARK    1  A    between atoms: C_5  and  N_8
REMARK    2  A    between atoms: N_8  and  C_9
REMARK    3  A    between atoms: C_16  and  C_18
REMARK                            x       y       z     vdW  Elec       q    Type
REMARK                         _______ _______ _______ _____ _____    ______ ____
ROOT
ATOM      1  N   UNL     1       7.462  -2.822  23.710  0.00  0.00    +0.000 N 
ATOM      2  C   UNL     1       7.739  -1.888  24.624  0.00  0.00    +0.000 C 
ATOM      3  O   UNL     1       7.577  -0.700  24.334  0.00  0.00    +0.000 OA
ENDROOT
BRANCH   1   8
ATOM      4  C   UNL     1       9.299   1.593  22.027  0.00  0.00    +0.000 C 
ATOM      5  C   UNL     1       9.406   0.209  21.459  0.00  0.00    +0.000 A 
ATOM      6  C   UNL     1       7.893  -0.288  21.051  0.00  0.00    +0.000 A 
ATOM      7  C   UNL     1       7.642  -1.619  21.660  0.00  0.00    +0.000 A 
ATOM      8  C   UNL     1       8.294  -2.530  22.629  0.00  0.00    +0.000 A 
ATOM      9  C   UNL     1       9.689  -2.065  23.037  0.00  0.00    +0.000 A 
ATOM     10  C   UNL     1      10.096  -0.808  22.260  0.00  0.00    +0.000 A 
ENDBRANCH   1   8
BRANCH   1  11
ATOM     11  C   UNL     1       7.229  -4.202  24.041  0.00  0.00    +0.000 C 
ATOM     12  C   UNL     1       5.747  -4.330  24.512  0.00  0.00    +0.000 C 
ATOM     13  S   UNL     1       5.048  -5.573  23.359  0.00  0.00    +0.000 S 
ATOM     14  O   UNL     1       4.041  -4.957  22.610  0.00  0.00    +0.000 OA
ATOM     15  O   UNL     1       4.795  -6.738  24.104  0.00  0.00    +0.000 OA
ATOM     16  C   UNL     1       6.474  -5.902  22.260  0.00  0.00    +0.000 C 
ATOM     17  C   UNL     1       7.491  -5.075  22.863  0.00  0.00    +0.000 C 
ENDBRANCH   1  11
BRANCH   2  18
ATOM     18  C   UNL     1       8.473  -2.271  25.872  0.00  0.00    +0.000 C 
ATOM     19 CL   UNL     1       8.867  -0.865  26.873  0.00  0.00    +0.000 Cl
ENDBRANCH   2  18
TORSDOF 3
ENDMDL
MODEL 5
REMARK VINA RESULT:      -5.7      2.479      4.141
REMARK  Name = 
REMARK  3 active torsions:
REMARK  status: ('A' for Active; 'I' for Inactive)
REMARK    1  A    between atoms: C_5  and  N_8
REMARK    2  A    between atoms: N_8  and  C_9
REMARK    3  A    between atoms: C_16  and  C_18
REMARK                            x       y       z     vdW  Elec       q    Type
REMARK                         _______ _______ _______ _____ _____    ______ ____
ROOT
ATOM      1  N   UNL     1       6.701  -1.616  22.651  0.00  0.00    +0.000 N 
ATOM      2  C   UNL     1       5.926  -2.704  22.651  0.00  0.00    +0.000 C 
ATOM      3  O   UNL     1       5.021  -2.794  23.485  0.00  0.00    +0.000 OA
ENDROOT
BRANCH   1   8
ATOM      4  C   UNL     1      10.754   0.886  24.386  0.00  0.00    +0.000 C 
ATOM      5  C   UNL     1       9.868  -0.123  25.053  0.00  0.00    +0.000 A 
ATOM      6  C   UNL     1      10.034  -1.549  24.252  0.00  0.00    +0.000 A 
ATOM      7  C   UNL     1       8.687  -2.059  23.892  0.00  0.00    +0.000 A 
ATOM      8  C   UNL     1       7.284  -1.584  23.918  0.00  0.00    +0.000 A 
ATOM      9  C   UNL     1       7.121  -0.247  24.635  0.00  0.00    +0.000 A 
ATOM     10  C   UNL     1       8.453   0.220  25.231  0.00  0.00    +0.000 A 
ENDBRANCH   1   8
BRANCH   1  11
ATOM     11  C   UNL     1       7.497  -1.218  21.521  0.00  0.00    +0.000 C 
ATOM     12  C   UNL     1       6.573  -1.238  20.263  0.00  0.00    +0.000 C 
ATOM     13  S   UNL     1       6.694   0.479  19.629  0.00  0.00    +0.000 S 
ATOM     14  O   UNL     1       5.427   1.064  19.706  0.00  0.00    +0.000 OA
ATOM     15  O   UNL     1       7.402   0.426  18.414  0.00  0.00    +0.000 OA
ATOM     16  C   UNL     1       7.776   1.261  20.880  0.00  0.00    +0.000 C 
ATOM     17  C   UNL     1       8.073   0.139  21.737  0.00  0.00    +0.000 C 
ENDBRANCH   1  11
BRANCH   2  18
ATOM     18  C   UNL     1       6.320  -3.892  21.828  0.00  0.00    +0.000 C 
ATOM     19 CL   UNL     1       6.865  -5.247  22.829  0.00  0.00    +0.000 Cl
ENDBRANCH   2  18
TORSDOF 3
ENDMDL
MODEL 6
REMARK VINA RESULT:      -5.6      3.646      5.456
REMARK  Name = 
REMARK  3 active torsions:
REMARK  status: ('A' for Active; 'I' for Inactive)
REMARK    1  A    between atoms: C_5  and  N_8
REMARK    2  A    between atoms: N_8  and  C_9
REMARK    3  A    between atoms: C_16  and  C_18
REMARK                            x       y       z     vdW  Elec       q    Type
REMARK                         _______ _______ _______ _____ _____    ______ ____
ROOT
ATOM      1  N   UNL     1       7.860  -2.733  23.830  0.00  0.00    +0.000 N 
ATOM      2  C   UNL     1       7.810  -4.063  23.719  0.00  0.00    +0.000 C 
ATOM      3  O   UNL     1       8.801  -4.727  24.032  0.00  0.00    +0.000 OA
ENDROOT
BRANCH   1   8
ATOM      4  C   UNL     1       9.152   1.828  22.035  0.00  0.00    +0.000 C 
ATOM      5  C   UNL     1       9.731   0.471  21.765  0.00  0.00    +0.000 A 
ATOM      6  C   UNL     1       8.576  -0.432  21.024  0.00  0.00    +0.000 A 
ATOM      7  C   UNL     1       8.431  -1.720  21.750  0.00  0.00    +0.000 A 
ATOM      8  C   UNL     1       8.914  -2.339  23.006  0.00  0.00    +0.000 A 
ATOM      9  C   UNL     1       9.968  -1.496  23.718  0.00  0.00    +0.000 A 
ATOM     10  C   UNL     1      10.325  -0.255  22.893  0.00  0.00    +0.000 A 
ENDBRANCH   1   8
BRANCH   1  11
ATOM     11  C   UNL     1       6.685  -1.903  23.884  0.00  0.00    +0.000 C 
ATOM     12  C   UNL     1       5.658  -2.602  24.828  0.00  0.00    +0.000 C 
ATOM     13  S   UNL     1       5.340  -1.330  26.111  0.00  0.00    +0.000 S 
ATOM     14  O   UNL     1       5.778  -1.830  27.341  0.00  0.00    +0.000 OA
ATOM     15  O   UNL     1       4.020  -0.880  25.934  0.00  0.00    +0.000 OA
ATOM     16  C   UNL     1       6.471   0.012  25.591  0.00  0.00    +0.000 C 
ATOM     17  C   UNL     1       7.028  -0.542  24.381  0.00  0.00    +0.000 C 
ENDBRANCH   1  11
BRANCH   2  18
ATOM     18  C   UNL     1       6.669  -4.701  22.987  0.00  0.00    +0.000 C 
ATOM     19 CL   UNL     1       7.215  -5.646  21.593  0.00  0.00    +0.000 Cl
ENDBRANCH   2  18
TORSDOF 3
ENDMDL
MODEL 7
REMARK VINA RESULT:      -5.6      3.064      4.986
REMARK  Name = 
REMARK  3 active torsions:
REMARK  status: ('A' for Active; 'I' for Inactive)
REMARK    1  A    between atoms: C_5  and  N_8
REMARK    2  A    between atoms: N_8  and  C_9
REMARK    3  A    between atoms: C_16  and  C_18
REMARK                            x       y       z     vdW  Elec       q    Type
REMARK                         _______ _______ _______ _____ _____    ______ ____
ROOT
ATOM      1  N   UNL     1       7.855  -0.252  23.371  0.00  0.00    +0.000 N 
ATOM      2  C   UNL     1       8.613   0.255  24.348  0.00  0.00    +0.000 C 
ATOM      3  O   UNL     1       8.340   1.370  24.800  0.00  0.00    +0.000 OA
ENDROOT
BRANCH   1   8
ATOM      4  C   UNL     1       5.871  -0.310  18.707  0.00  0.00    +0.000 C 
ATOM      5  C   UNL     1       6.817   0.656  19.355  0.00  0.00    +0.000 A 
ATOM      6  C   UNL     1       8.209  -0.150  19.692  0.00  0.00    +0.000 A 
ATOM      7  C   UNL     1       8.561   0.069  21.118  0.00  0.00    +0.000 A 
ATOM      8  C   UNL     1       7.948   0.667  22.326  0.00  0.00    +0.000 A 
ATOM      9  C   UNL     1       6.639   1.395  22.031  0.00  0.00    +0.000 A 
ATOM     10  C   UNL     1       6.341   1.398  20.528  0.00  0.00    +0.000 A 
ENDBRANCH   1   8
BRANCH   1  11
ATOM     11  C   UNL     1       7.820  -1.653  23.050  0.00  0.00    +0.000 C 
ATOM     12  C   UNL     1       7.998  -2.446  24.382  0.00  0.00    +0.000 C 
ATOM     13  S   UNL     1       6.493  -3.492  24.450  0.00  0.00    +0.000 S 
ATOM     14  O   UNL     1       5.748  -3.114  25.571  0.00  0.00    +0.000 OA
ATOM     15  O   UNL     1       6.900  -4.824  24.259  0.00  0.00    +0.000 OA
ATOM     16  C   UNL     1       5.598  -2.952  22.947  0.00  0.00    +0.000 C 
ATOM     17  C   UNL     1       6.533  -2.006  22.387  0.00  0.00    +0.000 C 
ENDBRANCH   1  11
BRANCH   2  18
ATOM     18  C   UNL     1       9.911  -0.407  24.694  0.00  0.00    +0.000 C 
ATOM     19 CL   UNL     1      11.280   0.711  24.589  0.00  0.00    +0.000 Cl
ENDBRANCH   2  18
TORSDOF 3
ENDMDL
MODEL 8
REMARK VINA RESULT:      -5.6      3.279      4.492
REMARK  Name = 
REMARK  3 active torsions:
REMARK  status: ('A' for Active; 'I' for Inactive)
REMARK    1  A    between atoms: C_5  and  N_8
REMARK    2  A    between atoms: N_8  and  C_9
REMARK    3  A    between atoms: C_16  and  C_18
REMARK                            x       y       z     vdW  Elec       q    Type
REMARK                         _______ _______ _______ _____ _____    ______ ____
ROOT
ATOM      1  N   UNL     1       7.718  -1.099  21.785  0.00  0.00    +0.000 N 
ATOM      2  C   UNL     1       7.593  -0.519  20.588  0.00  0.00    +0.000 C 
ATOM      3  O   UNL     1       8.609  -0.281  19.930  0.00  0.00    +0.000 OA
ENDROOT
BRANCH   1   8
ATOM      4  C   UNL     1       8.716  -0.930  26.752  0.00  0.00    +0.000 C 
ATOM      5  C   UNL     1       9.110  -0.000  25.643  0.00  0.00    +0.000 A 
ATOM      6  C   UNL     1       7.738   0.668  25.033  0.00  0.00    +0.000 A 
ATOM      7  C   UNL     1       7.729   0.493  23.559  0.00  0.00    +0.000 A 
ATOM      8  C   UNL     1       8.513  -0.228  22.529  0.00  0.00    +0.000 A 
ATOM      9  C   UNL     1       9.776  -0.877  23.088  0.00  0.00    +0.000 A 
ATOM     10  C   UNL     1       9.957  -0.534  24.571  0.00  0.00    +0.000 A 
ENDBRANCH   1   8
BRANCH   1  11
ATOM     11  C   UNL     1       6.634  -1.774  22.448  0.00  0.00    +0.000 C 
ATOM     12  C   UNL     1       5.898  -2.644  21.383  0.00  0.00    +0.000 C 
ATOM     13  S   UNL     1       6.000  -4.336  22.084  0.00  0.00    +0.000 S 
ATOM     14  O   UNL     1       6.755  -5.126  21.213  0.00  0.00    +0.000 OA
ATOM     15  O   UNL     1       4.699  -4.708  22.467  0.00  0.00    +0.000 OA
ATOM     16  C   UNL     1       6.976  -4.049  23.605  0.00  0.00    +0.000 C 
ATOM     17  C   UNL     1       7.147  -2.616  23.564  0.00  0.00    +0.000 C 
ENDBRANCH   1  11
BRANCH   2  18
ATOM     18  C   UNL     1       6.272   0.059  20.181  0.00  0.00    +0.000 C 
ATOM     19 CL   UNL     1       5.925  -0.212  18.466  0.00  0.00    +0.000 Cl
ENDBRANCH   2  18
TORSDOF 3
ENDMDL
MODEL 9
REMARK VINA RESULT:      -5.5      2.644      4.423
REMARK  Name = 
REMARK  3 active torsions:
REMARK  status: ('A' for Active; 'I' for Inactive)
REMARK    1  A    between atoms: C_5  and  N_8
REMARK    2  A    between atoms: N_8  and  C_9
REMARK    3  A    between atoms: C_16  and  C_18
REMARK                            x       y       z     vdW  Elec       q    Type
REMARK                         _______ _______ _______ _____ _____    ______ ____
ROOT
ATOM      1  N   UNL     1       7.439  -0.205  22.971  0.00  0.00    +0.000 N 
ATOM      2  C   UNL     1       7.593  -1.509  23.213  0.00  0.00    +0.000 C 
ATOM      3  O   UNL     1       6.914  -2.038  24.097  0.00  0.00    +0.000 OA
ENDROOT
BRANCH   1   8
ATOM      4  C   UNL     1       8.549   4.632  24.005  0.00  0.00    +0.000 C 
ATOM      5  C   UNL     1       8.539   3.420  24.889  0.00  0.00    +0.000 A 
ATOM      6  C   UNL     1       9.693   2.387  24.341  0.00  0.00    +0.000 A 
ATOM      7  C   UNL     1       9.089   1.043  24.154  0.00  0.00    +0.000 A 
ATOM      8  C   UNL     1       7.742   0.427  24.177  0.00  0.00    +0.000 A 
ATOM      9  C   UNL     1       6.657   1.385  24.658  0.00  0.00    +0.000 A 
ATOM     10  C   UNL     1       7.261   2.727  25.085  0.00  0.00    +0.000 A 
ENDBRANCH   1   8
BRANCH   1  11
ATOM     11  C   UNL     1       7.856   0.422  21.746  0.00  0.00    +0.000 C 
ATOM     12  C   UNL     1       7.832  -0.666  20.628  0.00  0.00    +0.000 C 
ATOM     13  S   UNL     1       6.690   0.044  19.380  0.00  0.00    +0.000 S 
ATOM     14  O   UNL     1       5.579  -0.798  19.275  0.00  0.00    +0.000 OA
ATOM     15  O   UNL     1       7.460   0.381  18.253  0.00  0.00    +0.000 OA
ATOM     16  C   UNL     1       6.169   1.597  20.195  0.00  0.00    +0.000 C 
ATOM     17  C   UNL     1       6.955   1.558  21.405  0.00  0.00    +0.000 C 
ENDBRANCH   1  11
BRANCH   2  18
ATOM     18  C   UNL     1       8.747  -2.243  22.602  0.00  0.00    +0.000 C 
ATOM     19 CL   UNL     1      10.073  -2.477  23.751  0.00  0.00    +0.000 Cl
ENDBRANCH   2  18
TORSDOF 3
ENDMDL
