MODEL 1
REMARK VINA RESULT:      -5.9      0.000      0.000
REMARK  Name = 
REMARK  3 active torsions:
REMARK  status: ('A' for Active; 'I' for Inactive)
REMARK    1  A    between atoms: C_2  and  C_3
REMARK    2  A    between atoms: N_5  and  C_6
REMARK    3  A    between atoms: N_5  and  C_13
REMARK                            x       y       z     vdW  Elec       q    Type
REMARK                         _______ _______ _______ _____ _____    ______ ____
ROOT
ATOM      1  C   UNL     1       9.369  -0.449  22.328  0.00  0.00    +0.000 C 
ATOM      2  O   UNL     1      10.075  -1.364  21.913  0.00  0.00    +0.000 OA
ATOM      3  N   UNL     1       8.134  -0.291  21.786  0.00  0.00    +0.000 N 
ENDROOT
BRANCH   3   4
ATOM      4  C   UNL     1       7.917   0.613  20.713  0.00  0.00    +0.000 C 
ATOM      5  C   UNL     1       7.989  -0.129  19.361  0.00  0.00    +0.000 C 
ATOM      6  S   UNL     1       6.396   0.319  18.557  0.00  0.00    +0.000 S 
ATOM      7  O   UNL     1       5.623  -0.849  18.498  0.00  0.00    +0.000 OA
ATOM      8  O   UNL     1       6.694   1.073  17.418  0.00  0.00    +0.000 OA
ATOM      9  C   UNL     1       5.651   1.429  19.809  0.00  0.00    +0.000 C 
ATOM     10  C   UNL     1       6.620   1.341  20.877  0.00  0.00    +0.000 C 
ENDBRANCH   3   4
BRANCH   3  11
ATOM     11  C   UNL     1       7.219  -0.978  22.450  0.00  0.00    +0.000 A 
ATOM     12  C   UNL     1       7.569  -0.950  24.053  0.00  0.00    +0.000 A 
ATOM     13  C   UNL     1       7.607  -2.360  24.563  0.00  0.00    +0.000 A 
ATOM     14  C   UNL     1       7.377  -3.721  24.058  0.00  0.00    +0.000 A 
ATOM     15  C   UNL     1       7.064  -3.741  22.509  0.00  0.00    +0.000 A 
ATOM     16  C   UNL     1       6.939  -2.356  22.013  0.00  0.00    +0.000 A 
ENDBRANCH   3  11
BRANCH   1  18
ATOM     17 CL   UNL     1      10.860   0.560  24.334  0.00  0.00    +0.000 Cl
ATOM     18  C   UNL     1      10.038   0.851  22.775  0.00  0.00    +0.000 C 
ENDBRANCH   1  18
TORSDOF 3
ENDMDL
MODEL 2
REMARK VINA RESULT:      -5.8      3.094      4.981
REMARK  Name = 
REMARK  3 active torsions:
REMARK  status: ('A' for Active; 'I' for Inactive)
REMARK    1  A    between atoms: C_2  and  C_3
REMARK    2  A    between atoms: N_5  and  C_6
REMARK    3  A    between atoms: N_5  and  C_13
REMARK                            x       y       z     vdW  Elec       q    Type
REMARK                         _______ _______ _______ _____ _____    ______ ____
ROOT
ATOM      1  C   UNL     1       7.621  -1.436  24.714  0.00  0.00    +0.000 C 
ATOM      2  O   UNL     1       6.847  -0.505  24.511  0.00  0.00    +0.000 OA
ATOM      3  N   UNL     1       7.720  -2.408  23.772  0.00  0.00    +0.000 N 
ENDROOT
BRANCH   3   4
ATOM      4  C   UNL     1       6.954  -3.600  23.868  0.00  0.00    +0.000 C 
ATOM      5  C   UNL     1       5.646  -3.466  23.058  0.00  0.00    +0.000 C 
ATOM      6  S   UNL     1       5.690  -4.937  21.953  0.00  0.00    +0.000 S 
ATOM      7  O   UNL     1       5.869  -4.465  20.646  0.00  0.00    +0.000 OA
ATOM      8  O   UNL     1       4.619  -5.763  22.308  0.00  0.00    +0.000 OA
ATOM      9  C   UNL     1       7.246  -5.747  22.481  0.00  0.00    +0.000 C 
ATOM     10  C   UNL     1       7.753  -4.789  23.438  0.00  0.00    +0.000 C 
ENDBRANCH   3   4
BRANCH   3  11
ATOM     11  C   UNL     1       8.662  -2.133  22.884  0.00  0.00    +0.000 A 
ATOM     12  C   UNL     1       9.976  -1.518  23.652  0.00  0.00    +0.000 A 
ATOM     13  C   UNL     1      10.341  -0.212  23.011  0.00  0.00    +0.000 A 
ATOM     14  C   UNL     1       9.897   0.626  21.888  0.00  0.00    +0.000 A 
ATOM     15  C   UNL     1       8.618   0.039  21.170  0.00  0.00    +0.000 A 
ATOM     16  C   UNL     1       8.300  -1.287  21.735  0.00  0.00    +0.000 A 
ENDBRANCH   3  11
BRANCH   1  18
ATOM     17 CL   UNL     1       8.885  -0.747  26.993  0.00  0.00    +0.000 Cl
ATOM     18  C   UNL     1       7.831  -1.918  26.149  0.00  0.00    +0.000 C 
ENDBRANCH   1  18
TORSDOF 3
ENDMDL
MODEL 3
REMARK VINA RESULT:      -5.8      3.585      5.749
REMARK  Name = 
REMARK  3 active torsions:
REMARK  status: ('A' for Active; 'I' for Inactive)
REMARK    1  A    between atoms: C_2  and  C_3
REMARK    2  A    between atoms: N_5  and  C_6
REMARK    3  A    between atoms: N_5  and  C_13
REMARK                            x       y       z     vdW  Elec       q    Type
REMARK                         _______ _______ _______ _____ _____    ______ ____
ROOT
ATOM      1  C   UNL     1       8.548  -0.565  24.558  0.00  0.00    +0.000 C 
ATOM      2  O   UNL     1       7.478   0.030  24.651  0.00  0.00    +0.000 OA
ATOM      3  N   UNL     1       8.525  -1.888  24.253  0.00  0.00    +0.000 N 
ENDROOT
BRANCH   3   4
ATOM      4  C   UNL     1       8.565  -2.874  25.273  0.00  0.00    +0.000 C 
ATOM      5  C   UNL     1       7.136  -3.333  25.634  0.00  0.00    +0.000 C 
ATOM      6  S   UNL     1       7.226  -5.161  25.444  0.00  0.00    +0.000 S 
ATOM      7  O   UNL     1       6.434  -5.500  24.339  0.00  0.00    +0.000 OA
ATOM      8  O   UNL     1       7.026  -5.728  26.707  0.00  0.00    +0.000 OA
ATOM      9  C   UNL     1       8.982  -5.395  24.976  0.00  0.00    +0.000 C 
ATOM     10  C   UNL     1       9.432  -4.026  24.874  0.00  0.00    +0.000 C 
ENDBRANCH   3   4
BRANCH   3  11
ATOM     11  C   UNL     1       8.576  -2.087  22.946  0.00  0.00    +0.000 A 
ATOM     12  C   UNL     1       9.887  -1.320  22.324  0.00  0.00    +0.000 A 
ATOM     13  C   UNL     1       9.440  -0.435  21.199  0.00  0.00    +0.000 A 
ATOM     14  C   UNL     1       8.200  -0.107  20.482  0.00  0.00    +0.000 A 
ATOM     15  C   UNL     1       6.939  -0.831  21.101  0.00  0.00    +0.000 A 
ATOM     16  C   UNL     1       7.377  -1.770  22.153  0.00  0.00    +0.000 A 
ENDBRANCH   3  11
BRANCH   1  18
ATOM     17 CL   UNL     1      10.715   1.037  24.579  0.00  0.00    +0.000 Cl
ATOM     18  C   UNL     1       9.704  -0.141  25.463  0.00  0.00    +0.000 C 
ENDBRANCH   1  18
TORSDOF 3
ENDMDL
MODEL 4
REMARK VINA RESULT:      -5.7      3.050      4.160
REMARK  Name = 
REMARK  3 active torsions:
REMARK  status: ('A' for Active; 'I' for Inactive)
REMARK    1  A    between atoms: C_2  and  C_3
REMARK    2  A    between atoms: N_5  and  C_6
REMARK    3  A    between atoms: N_5  and  C_13
REMARK                            x       y       z     vdW  Elec       q    Type
REMARK                         _______ _______ _______ _____ _____    ______ ____
ROOT
ATOM      1  C   UNL     1       8.494  -4.052  24.652  0.00  0.00    +0.000 C 
ATOM      2  O   UNL     1       9.322  -4.857  24.237  0.00  0.00    +0.000 OA
ATOM      3  N   UNL     1       8.086  -3.060  23.820  0.00  0.00    +0.000 N 
ENDROOT
BRANCH   3   4
ATOM      4  C   UNL     1       8.700  -1.780  23.851  0.00  0.00    +0.000 C 
ATOM      5  C   UNL     1       9.711  -1.640  22.693  0.00  0.00    +0.000 C 
ATOM      6  S   UNL     1       9.167  -0.097  21.851  0.00  0.00    +0.000 S 
ATOM      7  O   UNL     1       8.662  -0.468  20.598  0.00  0.00    +0.000 OA
ATOM      8  O   UNL     1      10.190   0.845  21.993  0.00  0.00    +0.000 OA
ATOM      9  C   UNL     1       7.756   0.416  22.901  0.00  0.00    +0.000 C 
ATOM     10  C   UNL     1       7.675  -0.691  23.827  0.00  0.00    +0.000 C 
ENDBRANCH   3   4
BRANCH   3  11
ATOM     11  C   UNL     1       7.027  -3.421  23.114  0.00  0.00    +0.000 A 
ATOM     12  C   UNL     1       5.848  -3.951  24.127  0.00  0.00    +0.000 A 
ATOM     13  C   UNL     1       5.408  -5.314  23.682  0.00  0.00    +0.000 A 
ATOM     14  C   UNL     1       5.690  -6.263  22.595  0.00  0.00    +0.000 A 
ATOM     15  C   UNL     1       6.842  -5.755  21.640  0.00  0.00    +0.000 A 
ATOM     16  C   UNL     1       7.224  -4.379  22.015  0.00  0.00    +0.000 A 
ENDBRANCH   3  11
BRANCH   1  18
ATOM     17 CL   UNL     1       7.779  -4.995  27.074  0.00  0.00    +0.000 Cl
ATOM     18  C   UNL     1       8.519  -3.669  26.132  0.00  0.00    +0.000 C 
ENDBRANCH   1  18
TORSDOF 3
ENDMDL
MODEL 5
REMARK VINA RESULT:      -5.4      3.166      5.117
REMARK  Name = 
REMARK  3 active torsions:
REMARK  status: ('A' for Active; 'I' for Inactive)
REMARK    1  A    between atoms: C_2  and  C_3
REMARK    2  A    between atoms: N_5  and  C_6
REMARK    3  A    between atoms: N_5  and  C_13
REMARK                            x       y       z     vdW  Elec       q    Type
REMARK                         _______ _______ _______ _____ _____    ______ ____
ROOT
ATOM      1  C   UNL     1       8.079  -0.288  21.538  0.00  0.00    +0.000 C 
ATOM      2  O   UNL     1       9.172  -0.589  21.067  0.00  0.00    +0.000 OA
ATOM      3  N   UNL     1       7.680  -0.901  22.682  0.00  0.00    +0.000 N 
ENDROOT
BRANCH   3   4
ATOM      4  C   UNL     1       6.855  -2.055  22.644  0.00  0.00    +0.000 C 
ATOM      5  C   UNL     1       7.720  -3.332  22.566  0.00  0.00    +0.000 C 
ATOM      6  S   UNL     1       7.105  -4.337  23.980  0.00  0.00    +0.000 S 
ATOM      7  O   UNL     1       8.137  -4.391  24.925  0.00  0.00    +0.000 OA
ATOM      8  O   UNL     1       6.514  -5.490  23.453  0.00  0.00    +0.000 OA
ATOM      9  C   UNL     1       5.781  -3.260  24.646  0.00  0.00    +0.000 C 
ATOM     10  C   UNL     1       5.922  -2.089  23.812  0.00  0.00    +0.000 C 
ENDBRANCH   3   4
BRANCH   3  11
ATOM     11  C   UNL     1       8.061  -0.225  23.754  0.00  0.00    +0.000 A 
ATOM     12  C   UNL     1       7.771   1.374  23.526  0.00  0.00    +0.000 A 
ATOM     13  C   UNL     1       9.038   2.135  23.784  0.00  0.00    +0.000 A 
ATOM     14  C   UNL     1      10.415   1.865  24.221  0.00  0.00    +0.000 A 
ATOM     15  C   UNL     1      10.692   0.321  24.415  0.00  0.00    +0.000 A 
ATOM     16  C   UNL     1       9.432  -0.430  24.248  0.00  0.00    +0.000 A 
ENDBRANCH   3  11
BRANCH   1  18
ATOM     17 CL   UNL     1       7.592   0.124  18.919  0.00  0.00    +0.000 Cl
ATOM     18  C   UNL     1       6.943   0.078  20.584  0.00  0.00    +0.000 C 
ENDBRANCH   1  18
TORSDOF 3
ENDMDL
MODEL 6
REMARK VINA RESULT:      -5.2      3.658      5.832
REMARK  Name = 
REMARK  3 active torsions:
REMARK  status: ('A' for Active; 'I' for Inactive)
REMARK    1  A    between atoms: C_2  and  C_3
REMARK    2  A    between atoms: N_5  and  C_6
REMARK    3  A    between atoms: N_5  and  C_13
REMARK                            x       y       z     vdW  Elec       q    Type
REMARK                         _______ _______ _______ _____ _____    ______ ____
ROOT
ATOM      1  C   UNL     1       7.168   0.221  24.745  0.00  0.00    +0.000 C 
ATOM      2  O   UNL     1       6.353   0.452  23.857  0.00  0.00    +0.000 OA
ATOM      3  N   UNL     1       7.837  -0.960  24.714  0.00  0.00    +0.000 N 
ENDROOT
BRANCH   3   4
ATOM      4  C   UNL     1       7.374  -2.082  25.450  0.00  0.00    +0.000 C 
ATOM      5  C   UNL     1       6.812  -3.158  24.496  0.00  0.00    +0.000 C 
ATOM      6  S   UNL     1       7.748  -4.668  24.975  0.00  0.00    +0.000 S 
ATOM      7  O   UNL     1       8.593  -4.985  23.903  0.00  0.00    +0.000 OA
ATOM      8  O   UNL     1       6.831  -5.585  25.498  0.00  0.00    +0.000 OA
ATOM      9  C   UNL     1       8.785  -4.037  26.347  0.00  0.00    +0.000 C 
ATOM     10  C   UNL     1       8.452  -2.631  26.330  0.00  0.00    +0.000 C 
ENDBRANCH   3   4
BRANCH   3  11
ATOM     11  C   UNL     1       8.966  -0.862  24.032  0.00  0.00    +0.000 A 
ATOM     12  C   UNL     1       9.872   0.363  24.643  0.00  0.00    +0.000 A 
ATOM     13  C   UNL     1      10.243   1.292  23.525  0.00  0.00    +0.000 A 
ATOM     14  C   UNL     1      10.072   1.386  22.068  0.00  0.00    +0.000 A 
ATOM     15  C   UNL     1       9.180   0.215  21.492  0.00  0.00    +0.000 A 
ATOM     16  C   UNL     1       8.880  -0.751  22.567  0.00  0.00    +0.000 A 
ENDBRANCH   3  11
BRANCH   1  18
ATOM     17 CL   UNL     1       7.338   2.494  26.184  0.00  0.00    +0.000 Cl
ATOM     18  C   UNL     1       6.899   0.762  26.149  0.00  0.00    +0.000 C 
ENDBRANCH   1  18
TORSDOF 3
ENDMDL
MODEL 7
REMARK VINA RESULT:      -5.2      3.808      5.445
REMARK  Name = 
REMARK  3 active torsions:
REMARK  status: ('A' for Active; 'I' for Inactive)
REMARK    1  A    between atoms: C_2  and  C_3
REMARK    2  A    between atoms: N_5  and  C_6
REMARK    3  A    between atoms: N_5  and  C_13
REMARK                            x       y       z     vdW  Elec       q    Type
REMARK                         _______ _______ _______ _____ _____    ______ ____
ROOT
ATOM      1  C   UNL     1       9.304  -2.846  23.764  0.00  0.00    +0.000 C 
ATOM      2  O   UNL     1      10.004  -3.665  24.353  0.00  0.00    +0.000 OA
ATOM      3  N   UNL     1       9.251  -1.579  24.247  0.00  0.00    +0.000 N 
ENDROOT
BRANCH   3   4
ATOM      4  C   UNL     1       8.215  -1.175  25.130  0.00  0.00    +0.000 C 
ATOM      5  C   UNL     1       6.981  -0.701  24.332  0.00  0.00    +0.000 C 
ATOM      6  S   UNL     1       5.619  -1.723  25.028  0.00  0.00    +0.000 S 
ATOM      7  O   UNL     1       5.211  -2.606  24.020  0.00  0.00    +0.000 OA
ATOM      8  O   UNL     1       4.726  -0.858  25.667  0.00  0.00    +0.000 OA
ATOM      9  C   UNL     1       6.503  -2.692  26.307  0.00  0.00    +0.000 C 
ATOM     10  C   UNL     1       7.868  -2.271  26.088  0.00  0.00    +0.000 C 
ENDBRANCH   3   4
BRANCH   3  11
ATOM     11  C   UNL     1      10.184  -0.812  23.707  0.00  0.00    +0.000 A 
ATOM     12  C   UNL     1      10.601   0.373  24.765  0.00  0.00    +0.000 A 
ATOM     13  C   UNL     1      10.476   1.699  24.076  0.00  0.00    +0.000 A 
ATOM     14  C   UNL     1      10.143   2.221  22.743  0.00  0.00    +0.000 A 
ATOM     15  C   UNL     1       9.721   1.077  21.739  0.00  0.00    +0.000 A 
ATOM     16  C   UNL     1       9.922  -0.239  22.377  0.00  0.00    +0.000 A 
ENDBRANCH   3  11
BRANCH   1  18
ATOM     17 CL   UNL     1       7.728  -5.024  23.569  0.00  0.00    +0.000 Cl
ATOM     18  C   UNL     1       8.016  -3.326  23.096  0.00  0.00    +0.000 C 
ENDBRANCH   1  18
TORSDOF 3
ENDMDL
MODEL 8
REMARK VINA RESULT:      -5.1      3.397      4.800
REMARK  Name = 
REMARK  3 active torsions:
REMARK  status: ('A' for Active; 'I' for Inactive)
REMARK    1  A    between atoms: C_2  and  C_3
REMARK    2  A    between atoms: N_5  and  C_6
REMARK    3  A    between atoms: N_5  and  C_13
REMARK                            x       y       z     vdW  Elec       q    Type
REMARK                         _______ _______ _______ _____ _____    ______ ____
ROOT
ATOM      1  C   UNL     1       6.787  -3.610  23.249  0.00  0.00    +0.000 C 
ATOM      2  O   UNL     1       5.682  -3.154  23.528  0.00  0.00    +0.000 OA
ATOM      3  N   UNL     1       7.885  -2.874  23.559  0.00  0.00    +0.000 N 
ENDROOT
BRANCH   3   4
ATOM      4  C   UNL     1       8.483  -2.013  22.602  0.00  0.00    +0.000 C 
ATOM      5  C   UNL     1       7.649  -0.723  22.442  0.00  0.00    +0.000 C 
ATOM      6  S   UNL     1       8.887   0.608  22.727  0.00  0.00    +0.000 S 
ATOM      7  O   UNL     1       8.552   1.230  23.937  0.00  0.00    +0.000 OA
ATOM      8  O   UNL     1       9.020   1.324  21.533  0.00  0.00    +0.000 OA
ATOM      9  C   UNL     1      10.417  -0.363  22.994  0.00  0.00    +0.000 C 
ATOM     10  C   UNL     1       9.904  -1.714  22.960  0.00  0.00    +0.000 C 
ENDBRANCH   3   4
BRANCH   3  11
ATOM     11  C   UNL     1       8.337  -3.160  24.769  0.00  0.00    +0.000 A 
ATOM     12  C   UNL     1       8.892  -4.705  24.796  0.00  0.00    +0.000 A 
ATOM     13  C   UNL     1       8.227  -5.437  25.923  0.00  0.00    +0.000 A 
ATOM     14  C   UNL     1       7.281  -5.156  27.012  0.00  0.00    +0.000 A 
ATOM     15  C   UNL     1       6.734  -3.675  26.965  0.00  0.00    +0.000 A 
ATOM     16  C   UNL     1       7.444  -2.920  25.914  0.00  0.00    +0.000 A 
ENDBRANCH   3  11
BRANCH   1  18
ATOM     17 CL   UNL     1       6.498  -6.153  22.402  0.00  0.00    +0.000 Cl
ATOM     18  C   UNL     1       6.932  -4.468  21.993  0.00  0.00    +0.000 C 
ENDBRANCH   1  18
TORSDOF 3
ENDMDL
MODEL 9
REMARK VINA RESULT:      -5.0      4.002      5.777
REMARK  Name = 
REMARK  3 active torsions:
REMARK  status: ('A' for Active; 'I' for Inactive)
REMARK    1  A    between atoms: C_2  and  C_3
REMARK    2  A    between atoms: N_5  and  C_6
REMARK    3  A    between atoms: N_5  and  C_13
REMARK                            x       y       z     vdW  Elec       q    Type
REMARK                         _______ _______ _______ _____ _____    ______ ____
ROOT
ATOM      1  C   UNL     1       8.231  -3.347  25.659  0.00  0.00    +0.000 C 
ATOM      2  O   UNL     1       7.484  -2.542  26.208  0.00  0.00    +0.000 OA
ATOM      3  N   UNL     1       7.886  -3.814  24.432  0.00  0.00    +0.000 N 
ENDROOT
BRANCH   3   4
ATOM      4  C   UNL     1       7.179  -5.036  24.288  0.00  0.00    +0.000 C 
ATOM      5  C   UNL     1       5.691  -4.845  24.654  0.00  0.00    +0.000 C 
ATOM      6  S   UNL     1       4.813  -5.481  23.167  0.00  0.00    +0.000 S 
ATOM      7  O   UNL     1       4.204  -4.382  22.547  0.00  0.00    +0.000 OA
ATOM      8  O   UNL     1       4.089  -6.613  23.556  0.00  0.00    +0.000 OA
ATOM      9  C   UNL     1       6.213  -6.021  22.116  0.00  0.00    +0.000 C 
ATOM     10  C   UNL     1       7.343  -5.593  22.909  0.00  0.00    +0.000 C 
ENDBRANCH   3   4
BRANCH   3  11
ATOM     11  C   UNL     1       8.381  -3.058  23.466  0.00  0.00    +0.000 A 
ATOM     12  C   UNL     1       9.820  -2.429  23.945  0.00  0.00    +0.000 A 
ATOM     13  C   UNL     1       9.777  -0.940  23.771  0.00  0.00    +0.000 A 
ATOM     14  C   UNL     1       8.854   0.083  23.259  0.00  0.00    +0.000 A 
ATOM     15  C   UNL     1       7.464  -0.528  22.822  0.00  0.00    +0.000 A 
ATOM     16  C   UNL     1       7.523  -2.001  22.908  0.00  0.00    +0.000 A 
ENDBRANCH   3  11
BRANCH   1  18
ATOM     17 CL   UNL     1      10.188  -5.194  25.494  0.00  0.00    +0.000 Cl
ATOM     18  C   UNL     1       9.001  -4.344  26.525  0.00  0.00    +0.000 C 
ENDBRANCH   1  18
TORSDOF 3
ENDMDL
