MODEL 1
REMARK VINA RESULT:      -5.8      0.000      0.000
REMARK  Name = 
REMARK  3 active torsions:
REMARK  status: ('A' for Active; 'I' for Inactive)
REMARK    1  A    between atoms: C_2  and  C_3
REMARK    2  A    between atoms: N_8  and  C_9
REMARK    3  A    between atoms: C_9  and  C_10
REMARK                            x       y       z     vdW  Elec       q    Type
REMARK                         _______ _______ _______ _____ _____    ______ ____
ROOT
ATOM      1  C   UNL     1       7.903  -4.860  24.072  0.00  0.00    +0.000 C 
ATOM      2  O   UNL     1       8.948  -5.462  24.178  0.00  0.00    +0.000 OA
ATOM      3  N   UNL     1       7.745  -3.635  24.609  0.00  0.00    +0.000 N 
ATOM      4  C   UNL     1       8.486  -3.274  25.805  0.00  0.00    +0.000 C 
ATOM      5  C   UNL     1       8.544  -1.758  25.918  0.00  0.00    +0.000 C 
ATOM      6  N   UNL     1       8.584  -1.153  24.637  0.00  0.00    +0.000 NA
ATOM      7  C   UNL     1       7.389  -1.323  23.933  0.00  0.00    +0.000 C 
ATOM      8  C   UNL     1       6.797  -2.704  24.044  0.00  0.00    +0.000 C 
ENDROOT
BRANCH   1  10
ATOM      9 CL   UNL     1       7.094  -5.904  21.718  0.00  0.00    +0.000 Cl
ATOM     10  C   UNL     1       6.694  -5.462  23.398  0.00  0.00    +0.000 C 
ENDBRANCH   1  10
BRANCH   6  11
ATOM     11  C   UNL     1       9.728  -1.535  23.915  0.00  0.00    +0.000 C 
BRANCH  11  12
ATOM     12  C   UNL     1      10.386  -0.429  23.170  0.00  0.00    +0.000 A 
ATOM     13  C   UNL     1       9.878   0.185  21.985  0.00  0.00    +0.000 A 
ATOM     14  C   UNL     1       9.981   1.687  22.000  0.00  0.00    +0.000 A 
ATOM     15  C   UNL     1       9.954   2.164  23.362  0.00  0.00    +0.000 A 
ATOM     16 BR   UNL     1      10.849   3.787  23.520  0.00  0.00    +0.000 Br
ATOM     17  S   UNL     1      10.812   0.898  24.295  0.00  0.00    +0.000 S 
ENDBRANCH  11  12
ENDBRANCH   6  11
TORSDOF 3
ENDMDL
MODEL 2
REMARK VINA RESULT:      -5.6      4.646      6.228
REMARK  Name = 
REMARK  3 active torsions:
REMARK  status: ('A' for Active; 'I' for Inactive)
REMARK    1  A    between atoms: C_2  and  C_3
REMARK    2  A    between atoms: N_8  and  C_9
REMARK    3  A    between atoms: C_9  and  C_10
REMARK                            x       y       z     vdW  Elec       q    Type
REMARK                         _______ _______ _______ _____ _____    ______ ____
ROOT
ATOM      1  C   UNL     1       6.808  -0.525  20.093  0.00  0.00    +0.000 C 
ATOM      2  O   UNL     1       5.700  -1.008  20.012  0.00  0.00    +0.000 OA
ATOM      3  N   UNL     1       7.512  -0.579  21.239  0.00  0.00    +0.000 N 
ATOM      4  C   UNL     1       6.811  -0.602  22.512  0.00  0.00    +0.000 C 
ATOM      5  C   UNL     1       7.738  -1.162  23.581  0.00  0.00    +0.000 C 
ATOM      6  N   UNL     1       8.615  -2.133  23.038  0.00  0.00    +0.000 NA
ATOM      7  C   UNL     1       9.538  -1.576  22.150  0.00  0.00    +0.000 C 
ATOM      8  C   UNL     1       8.955  -0.547  21.215  0.00  0.00    +0.000 C 
ENDROOT
BRANCH   1  10
ATOM      9 CL   UNL     1       6.175   0.955  17.926  0.00  0.00    +0.000 Cl
ATOM     10  C   UNL     1       7.441   0.226  18.947  0.00  0.00    +0.000 C 
ENDBRANCH   1  10
BRANCH   6  11
ATOM     11  C   UNL     1       7.914  -3.233  22.512  0.00  0.00    +0.000 C 
BRANCH  11  12
ATOM     12  C   UNL     1       7.896  -4.431  23.392  0.00  0.00    +0.000 A 
ATOM     13  C   UNL     1       8.657  -4.588  24.590  0.00  0.00    +0.000 A 
ATOM     14  C   UNL     1       7.864  -5.173  25.728  0.00  0.00    +0.000 A 
ATOM     15  C   UNL     1       6.467  -4.849  25.568  0.00  0.00    +0.000 A 
ATOM     16 BR   UNL     1       5.386  -6.124  26.383  0.00  0.00    +0.000 Br
ATOM     17  S   UNL     1       6.206  -4.869  23.794  0.00  0.00    +0.000 S 
ENDBRANCH  11  12
ENDBRANCH   6  11
TORSDOF 3
ENDMDL
MODEL 3
REMARK VINA RESULT:      -5.5      2.457      2.754
REMARK  Name = 
REMARK  3 active torsions:
REMARK  status: ('A' for Active; 'I' for Inactive)
REMARK    1  A    between atoms: C_2  and  C_3
REMARK    2  A    between atoms: N_8  and  C_9
REMARK    3  A    between atoms: C_9  and  C_10
REMARK                            x       y       z     vdW  Elec       q    Type
REMARK                         _______ _______ _______ _____ _____    ______ ____
ROOT
ATOM      1  C   UNL     1       6.758  -5.339  23.100  0.00  0.00    +0.000 C 
ATOM      2  O   UNL     1       7.417  -5.779  22.184  0.00  0.00    +0.000 OA
ATOM      3  N   UNL     1       7.344  -4.806  24.189  0.00  0.00    +0.000 N 
ATOM      4  C   UNL     1       8.648  -5.289  24.611  0.00  0.00    +0.000 C 
ATOM      5  C   UNL     1       9.304  -4.241  25.498  0.00  0.00    +0.000 C 
ATOM      6  N   UNL     1       8.932  -2.932  25.102  0.00  0.00    +0.000 NA
ATOM      7  C   UNL     1       7.579  -2.672  25.338  0.00  0.00    +0.000 C 
ATOM      8  C   UNL     1       6.658  -3.810  24.977  0.00  0.00    +0.000 C 
ENDROOT
BRANCH   1  10
ATOM      9 CL   UNL     1       4.729  -6.804  24.112  0.00  0.00    +0.000 Cl
ATOM     10  C   UNL     1       5.251  -5.420  23.116  0.00  0.00    +0.000 C 
ENDBRANCH   1  10
BRANCH   6  11
ATOM     11  C   UNL     1       9.344  -2.647  23.789  0.00  0.00    +0.000 C 
BRANCH  11  12
ATOM     12  C   UNL     1       8.914  -1.317  23.282  0.00  0.00    +0.000 A 
ATOM     13  C   UNL     1       9.789  -0.262  22.884  0.00  0.00    +0.000 A 
ATOM     14  C   UNL     1       9.375   0.406  21.600  0.00  0.00    +0.000 A 
ATOM     15  C   UNL     1       8.635  -0.525  20.783  0.00  0.00    +0.000 A 
ATOM     16 BR   UNL     1       7.454   0.367  19.656  0.00  0.00    +0.000 Br
ATOM     17  S   UNL     1       7.723  -1.523  21.960  0.00  0.00    +0.000 S 
ENDBRANCH  11  12
ENDBRANCH   6  11
TORSDOF 3
ENDMDL
MODEL 4
REMARK VINA RESULT:      -5.5      1.554      1.709
REMARK  Name = 
REMARK  3 active torsions:
REMARK  status: ('A' for Active; 'I' for Inactive)
REMARK    1  A    between atoms: C_2  and  C_3
REMARK    2  A    between atoms: N_8  and  C_9
REMARK    3  A    between atoms: C_9  and  C_10
REMARK                            x       y       z     vdW  Elec       q    Type
REMARK                         _______ _______ _______ _____ _____    ______ ____
ROOT
ATOM      1  C   UNL     1       6.694  -5.357  22.694  0.00  0.00    +0.000 C 
ATOM      2  O   UNL     1       7.472  -6.001  22.024  0.00  0.00    +0.000 OA
ATOM      3  N   UNL     1       7.127  -4.433  23.572  0.00  0.00    +0.000 N 
ATOM      4  C   UNL     1       8.420  -4.602  24.214  0.00  0.00    +0.000 C 
ATOM      5  C   UNL     1       8.899  -3.254  24.732  0.00  0.00    +0.000 C 
ATOM      6  N   UNL     1       8.460  -2.200  23.893  0.00  0.00    +0.000 NA
ATOM      7  C   UNL     1       7.075  -2.027  23.941  0.00  0.00    +0.000 C 
ATOM      8  C   UNL     1       6.289  -3.313  23.930  0.00  0.00    +0.000 C 
ENDROOT
BRANCH   1  10
ATOM      9 CL   UNL     1       4.716  -6.679  23.968  0.00  0.00    +0.000 Cl
ATOM     10  C   UNL     1       5.204  -5.593  22.642  0.00  0.00    +0.000 C 
ENDBRANCH   1  10
BRANCH   6  11
ATOM     11  C   UNL     1       8.973  -2.323  22.589  0.00  0.00    +0.000 C 
BRANCH  11  12
ATOM     12  C   UNL     1       9.616  -1.091  22.060  0.00  0.00    +0.000 A 
ATOM     13  C   UNL     1       9.001  -0.150  21.180  0.00  0.00    +0.000 A 
ATOM     14  C   UNL     1       9.247   1.283  21.570  0.00  0.00    +0.000 A 
ATOM     15  C   UNL     1       9.466   1.370  22.994  0.00  0.00    +0.000 A 
ATOM     16 BR   UNL     1      10.525   2.839  23.418  0.00  0.00    +0.000 Br
ATOM     17  S   UNL     1      10.328  -0.147  23.406  0.00  0.00    +0.000 S 
ENDBRANCH  11  12
ENDBRANCH   6  11
TORSDOF 3
ENDMDL
MODEL 5
REMARK VINA RESULT:      -5.3      2.585      3.319
REMARK  Name = 
REMARK  3 active torsions:
REMARK  status: ('A' for Active; 'I' for Inactive)
REMARK    1  A    between atoms: C_2  and  C_3
REMARK    2  A    between atoms: N_8  and  C_9
REMARK    3  A    between atoms: C_9  and  C_10
REMARK                            x       y       z     vdW  Elec       q    Type
REMARK                         _______ _______ _______ _____ _____    ______ ____
ROOT
ATOM      1  C   UNL     1       6.142  -4.441  26.652  0.00  0.00    +0.000 C 
ATOM      2  O   UNL     1       5.332  -3.590  26.356  0.00  0.00    +0.000 OA
ATOM      3  N   UNL     1       7.045  -4.885  25.758  0.00  0.00    +0.000 N 
ATOM      4  C   UNL     1       6.715  -4.886  24.343  0.00  0.00    +0.000 C 
ATOM      5  C   UNL     1       8.001  -4.933  23.531  0.00  0.00    +0.000 C 
ATOM      6  N   UNL     1       9.048  -4.245  24.193  0.00  0.00    +0.000 NA
ATOM      7  C   UNL     1       9.448  -4.892  25.365  0.00  0.00    +0.000 C 
ATOM      8  C   UNL     1       8.310  -5.421  26.200  0.00  0.00    +0.000 C 
ENDROOT
BRANCH   1  10
ATOM      9 CL   UNL     1       5.226  -6.628  27.941  0.00  0.00    +0.000 Cl
ATOM     10  C   UNL     1       6.150  -5.105  28.007  0.00  0.00    +0.000 C 
ENDBRANCH   1  10
BRANCH   6  11
ATOM     11  C   UNL     1       8.746  -2.883  24.371  0.00  0.00    +0.000 C 
BRANCH  11  12
ATOM     12  C   UNL     1       9.705  -1.949  23.724  0.00  0.00    +0.000 A 
ATOM     13  C   UNL     1       9.714  -1.602  22.339  0.00  0.00    +0.000 A 
ATOM     14  C   UNL     1       9.904  -0.129  22.094  0.00  0.00    +0.000 A 
ATOM     15  C   UNL     1       9.408   0.622  23.222  0.00  0.00    +0.000 A 
ATOM     16 BR   UNL     1      10.288   2.253  23.380  0.00  0.00    +0.000 Br
ATOM     17  S   UNL     1       9.773  -0.411  24.640  0.00  0.00    +0.000 S 
ENDBRANCH  11  12
ENDBRANCH   6  11
TORSDOF 3
ENDMDL
MODEL 6
REMARK VINA RESULT:      -5.3      4.717      6.496
REMARK  Name = 
REMARK  3 active torsions:
REMARK  status: ('A' for Active; 'I' for Inactive)
REMARK    1  A    between atoms: C_2  and  C_3
REMARK    2  A    between atoms: N_8  and  C_9
REMARK    3  A    between atoms: C_9  and  C_10
REMARK                            x       y       z     vdW  Elec       q    Type
REMARK                         _______ _______ _______ _____ _____    ______ ____
ROOT
ATOM      1  C   UNL     1       9.233   1.538  24.076  0.00  0.00    +0.000 C 
ATOM      2  O   UNL     1       8.912   1.175  25.187  0.00  0.00    +0.000 OA
ATOM      3  N   UNL     1       9.676   0.661  23.156  0.00  0.00    +0.000 N 
ATOM      4  C   UNL     1      10.380  -0.536  23.585  0.00  0.00    +0.000 C 
ATOM      5  C   UNL     1      10.325  -1.573  22.473  0.00  0.00    +0.000 C 
ATOM      6  N   UNL     1       9.114  -1.474  21.743  0.00  0.00    +0.000 NA
ATOM      7  C   UNL     1       9.035  -0.289  21.008  0.00  0.00    +0.000 C 
ATOM      8  C   UNL     1       9.517   0.933  21.747  0.00  0.00    +0.000 C 
ENDROOT
BRANCH   1  10
ATOM      9 CL   UNL     1      10.898   3.588  23.518  0.00  0.00    +0.000 Cl
ATOM     10  C   UNL     1       9.225   2.992  23.673  0.00  0.00    +0.000 C 
ENDBRANCH   1  10
BRANCH   6  11
ATOM     11  C   UNL     1       7.993  -1.712  22.557  0.00  0.00    +0.000 C 
BRANCH  11  12
ATOM     12  C   UNL     1       7.493  -3.113  22.524  0.00  0.00    +0.000 A 
ATOM     13  C   UNL     1       7.763  -4.110  23.509  0.00  0.00    +0.000 A 
ATOM     14  C   UNL     1       6.549  -4.912  23.895  0.00  0.00    +0.000 A 
ATOM     15  C   UNL     1       5.358  -4.122  23.697  0.00  0.00    +0.000 A 
ATOM     16 BR   UNL     1       3.884  -5.206  23.364  0.00  0.00    +0.000 Br
ATOM     17  S   UNL     1       5.722  -3.123  22.253  0.00  0.00    +0.000 S 
ENDBRANCH  11  12
ENDBRANCH   6  11
TORSDOF 3
ENDMDL
MODEL 7
REMARK VINA RESULT:      -5.3      4.032      5.778
REMARK  Name = 
REMARK  3 active torsions:
REMARK  status: ('A' for Active; 'I' for Inactive)
REMARK    1  A    between atoms: C_2  and  C_3
REMARK    2  A    between atoms: N_8  and  C_9
REMARK    3  A    between atoms: C_9  and  C_10
REMARK                            x       y       z     vdW  Elec       q    Type
REMARK                         _______ _______ _______ _____ _____    ______ ____
ROOT
ATOM      1  C   UNL     1       7.723   0.356  21.472  0.00  0.00    +0.000 C 
ATOM      2  O   UNL     1       6.699   0.699  22.021  0.00  0.00    +0.000 OA
ATOM      3  N   UNL     1       8.850   0.130  22.173  0.00  0.00    +0.000 N 
ATOM      4  C   UNL     1       9.088   0.862  23.405  0.00  0.00    +0.000 C 
ATOM      5  C   UNL     1      10.108   0.106  24.245  0.00  0.00    +0.000 C 
ATOM      6  N   UNL     1       9.986  -1.294  24.057  0.00  0.00    +0.000 NA
ATOM      7  C   UNL     1      10.355  -1.689  22.769  0.00  0.00    +0.000 C 
ATOM      8  C   UNL     1       9.852  -0.782  21.675  0.00  0.00    +0.000 C 
ENDROOT
BRANCH   1  10
ATOM      9 CL   UNL     1       6.292  -0.401  19.312  0.00  0.00    +0.000 Cl
ATOM     10  C   UNL     1       7.824   0.228  19.971  0.00  0.00    +0.000 C 
ENDBRANCH   1  10
BRANCH   6  11
ATOM     11  C   UNL     1       8.723  -1.766  24.456  0.00  0.00    +0.000 C 
BRANCH  11  12
ATOM     12  C   UNL     1       8.450  -3.182  24.093  0.00  0.00    +0.000 A 
ATOM     13  C   UNL     1       8.293  -4.257  25.019  0.00  0.00    +0.000 A 
ATOM     14  C   UNL     1       7.136  -5.162  24.691  0.00  0.00    +0.000 A 
ATOM     15  C   UNL     1       6.130  -4.426  23.965  0.00  0.00    +0.000 A 
ATOM     16 BR   UNL     1       5.135  -5.554  22.870  0.00  0.00    +0.000 Br
ATOM     17  S   UNL     1       7.062  -3.267  22.965  0.00  0.00    +0.000 S 
ENDBRANCH  11  12
ENDBRANCH   6  11
TORSDOF 3
ENDMDL
MODEL 8
REMARK VINA RESULT:      -5.2      4.652      6.467
REMARK  Name = 
REMARK  3 active torsions:
REMARK  status: ('A' for Active; 'I' for Inactive)
REMARK    1  A    between atoms: C_2  and  C_3
REMARK    2  A    between atoms: N_8  and  C_9
REMARK    3  A    between atoms: C_9  and  C_10
REMARK                            x       y       z     vdW  Elec       q    Type
REMARK                         _______ _______ _______ _____ _____    ______ ____
ROOT
ATOM      1  C   UNL     1       9.354   1.676  23.881  0.00  0.00    +0.000 C 
ATOM      2  O   UNL     1       9.044   1.501  25.039  0.00  0.00    +0.000 OA
ATOM      3  N   UNL     1       9.664   0.641  23.077  0.00  0.00    +0.000 N 
ATOM      4  C   UNL     1      10.256  -0.557  23.645  0.00  0.00    +0.000 C 
ATOM      5  C   UNL     1      10.046  -1.720  22.686  0.00  0.00    +0.000 C 
ATOM      6  N   UNL     1       8.823  -1.586  21.983  0.00  0.00    +0.000 NA
ATOM      7  C   UNL     1       8.837  -0.508  21.096  0.00  0.00    +0.000 C 
ATOM      8  C   UNL     1       9.475   0.741  21.649  0.00  0.00    +0.000 C 
ENDROOT
BRANCH   1  10
ATOM      9 CL   UNL     1      11.178   3.597  23.362  0.00  0.00    +0.000 Cl
ATOM     10  C   UNL     1       9.481   3.056  23.284  0.00  0.00    +0.000 C 
ENDBRANCH   1  10
BRANCH   6  11
ATOM     11  C   UNL     1       7.718  -1.591  22.853  0.00  0.00    +0.000 C 
BRANCH  11  12
ATOM     12  C   UNL     1       6.873  -2.812  22.771  0.00  0.00    +0.000 A 
ATOM     13  C   UNL     1       7.295  -4.076  22.258  0.00  0.00    +0.000 A 
ATOM     14  C   UNL     1       6.862  -5.240  23.109  0.00  0.00    +0.000 A 
ATOM     15  C   UNL     1       6.709  -4.814  24.479  0.00  0.00    +0.000 A 
ATOM     16 BR   UNL     1       5.469  -5.872  25.374  0.00  0.00    +0.000 Br
ATOM     17  S   UNL     1       6.103  -3.131  24.356  0.00  0.00    +0.000 S 
ENDBRANCH  11  12
ENDBRANCH   6  11
TORSDOF 3
ENDMDL
MODEL 9
REMARK VINA RESULT:      -5.2      4.561      6.319
REMARK  Name = 
REMARK  3 active torsions:
REMARK  status: ('A' for Active; 'I' for Inactive)
REMARK    1  A    between atoms: C_2  and  C_3
REMARK    2  A    between atoms: N_8  and  C_9
REMARK    3  A    between atoms: C_9  and  C_10
REMARK                            x       y       z     vdW  Elec       q    Type
REMARK                         _______ _______ _______ _____ _____    ______ ____
ROOT
ATOM      1  C   UNL     1       7.508   2.277  23.310  0.00  0.00    +0.000 C 
ATOM      2  O   UNL     1       6.816   2.144  24.295  0.00  0.00    +0.000 OA
ATOM      3  N   UNL     1       8.771   1.812  23.276  0.00  0.00    +0.000 N 
ATOM      4  C   UNL     1       9.544   1.743  24.505  0.00  0.00    +0.000 C 
ATOM      5  C   UNL     1      10.686   0.754  24.320  0.00  0.00    +0.000 C 
ATOM      6  N   UNL     1      10.313  -0.300  23.450  0.00  0.00    +0.000 NA
ATOM      7  C   UNL     1      10.124   0.138  22.137  0.00  0.00    +0.000 C 
ATOM      8  C   UNL     1       9.384   1.446  22.021  0.00  0.00    +0.000 C 
ENDROOT
BRANCH   1  10
ATOM      9 CL   UNL     1       7.304   4.774  22.308  0.00  0.00    +0.000 Cl
ATOM     10  C   UNL     1       7.032   3.026  22.090  0.00  0.00    +0.000 C 
ENDBRANCH   1  10
BRANCH   6  11
ATOM     11  C   UNL     1       9.233  -1.041  23.962  0.00  0.00    +0.000 C 
BRANCH  11  12
ATOM     12  C   UNL     1       9.266  -2.490  23.629  0.00  0.00    +0.000 A 
ATOM     13  C   UNL     1       9.372  -3.553  24.576  0.00  0.00    +0.000 A 
ATOM     14  C   UNL     1       8.432  -4.696  24.299  0.00  0.00    +0.000 A 
ATOM     15  C   UNL     1       7.269  -4.212  23.594  0.00  0.00    +0.000 A 
ATOM     16 BR   UNL     1       6.515  -5.552  22.548  0.00  0.00    +0.000 Br
ATOM     17  S   UNL     1       7.899  -2.899  22.547  0.00  0.00    +0.000 S 
ENDBRANCH  11  12
ENDBRANCH   6  11
TORSDOF 3
ENDMDL
