MODEL 1
REMARK VINA RESULT:      -6.1      0.000      0.000
REMARK  Name = 
REMARK  3 active torsions:
REMARK  status: ('A' for Active; 'I' for Inactive)
REMARK    1  A    between atoms: C_7  and  C_8
REMARK    2  A    between atoms: C_8  and  N_9
REMARK    3  A    between atoms: C_16  and  C_18
REMARK                            x       y       z     vdW  Elec       q    Type
REMARK                         _______ _______ _______ _____ _____    ______ ____
ROOT
ATOM      1  N   UNL     1       7.747  -1.670  22.616  0.00  0.00    +0.000 NA
ATOM      2  C   UNL     1       6.990  -2.788  22.192  0.00  0.00    +0.000 C 
ATOM      3  C   UNL     1       7.474  -4.095  22.740  0.00  0.00    +0.000 C 
ATOM      4  C   UNL     1       6.725  -4.513  23.990  0.00  0.00    +0.000 C 
ATOM      5  N   UNL     1       7.208  -3.703  25.106  0.00  0.00    +0.000 N 
ATOM      6  C   UNL     1       7.248  -2.256  24.921  0.00  0.00    +0.000 C 
ATOM      7  C   UNL     1       8.320  -1.919  23.904  0.00  0.00    +0.000 C 
ATOM      8  C   UNL     1       7.194  -4.212  26.350  0.00  0.00    +0.000 C 
ATOM      9  O   UNL     1       6.504  -3.716  27.218  0.00  0.00    +0.000 OA
ENDROOT
BRANCH   8  10
ATOM     10  C   UNL     1       8.167  -5.326  26.646  0.00  0.00    +0.000 C 
ATOM     11 CL   UNL     1       9.732  -4.999  25.860  0.00  0.00    +0.000 Cl
ENDBRANCH   8  10
BRANCH   1  12
ATOM     12  C   UNL     1       8.863  -1.480  21.698  0.00  0.00    +0.000 C 
BRANCH  12  19
ATOM     13  C   UNL     1      10.168   2.079  22.122  0.00  0.00    +0.000 C 
ATOM     14  C   UNL     1       9.013   1.043  22.248  0.00  0.00    +0.000 A 
ATOM     15  C   UNL     1       7.679   2.063  22.414  0.00  0.00    +0.000 A 
ATOM     16  C   UNL     1       6.895   1.950  21.139  0.00  0.00    +0.000 A 
ATOM     17  C   UNL     1       6.664   0.925  20.108  0.00  0.00    +0.000 A 
ATOM     18  C   UNL     1       7.883  -0.027  19.956  0.00  0.00    +0.000 A 
ATOM     19  C   UNL     1       8.723   0.033  21.240  0.00  0.00    +0.000 A 
ENDBRANCH  12  19
ENDBRANCH   1  12
TORSDOF 3
ENDMDL
MODEL 2
REMARK VINA RESULT:      -6.0      2.073      2.597
REMARK  Name = 
REMARK  3 active torsions:
REMARK  status: ('A' for Active; 'I' for Inactive)
REMARK    1  A    between atoms: C_7  and  C_8
REMARK    2  A    between atoms: C_8  and  N_9
REMARK    3  A    between atoms: C_16  and  C_18
REMARK                            x       y       z     vdW  Elec       q    Type
REMARK                         _______ _______ _______ _____ _____    ______ ____
ROOT
ATOM      1  N   UNL     1       8.242  -1.705  23.378  0.00  0.00    +0.000 NA
ATOM      2  C   UNL     1       6.928  -1.332  23.004  0.00  0.00    +0.000 C 
ATOM      3  C   UNL     1       6.190  -2.387  22.239  0.00  0.00    +0.000 C 
ATOM      4  C   UNL     1       5.310  -3.240  23.130  0.00  0.00    +0.000 C 
ATOM      5  N   UNL     1       6.165  -4.170  23.863  0.00  0.00    +0.000 N 
ATOM      6  C   UNL     1       7.319  -3.616  24.564  0.00  0.00    +0.000 C 
ATOM      7  C   UNL     1       8.326  -3.125  23.542  0.00  0.00    +0.000 C 
ATOM      8  C   UNL     1       5.680  -5.369  24.232  0.00  0.00    +0.000 C 
ATOM      9  O   UNL     1       5.569  -5.661  25.405  0.00  0.00    +0.000 OA
ENDROOT
BRANCH   8  10
ATOM     10  C   UNL     1       5.417  -6.368  23.133  0.00  0.00    +0.000 C 
ATOM     11 CL   UNL     1       6.753  -6.353  21.956  0.00  0.00    +0.000 Cl
ENDBRANCH   8  10
BRANCH   1  12
ATOM     12  C   UNL     1       9.156  -1.361  22.296  0.00  0.00    +0.000 C 
BRANCH  12  19
ATOM     13  C   UNL     1      11.303   0.719  24.665  0.00  0.00    +0.000 C 
ATOM     14  C   UNL     1       9.906   0.346  24.089  0.00  0.00    +0.000 A 
ATOM     15  C   UNL     1       8.986   1.670  24.588  0.00  0.00    +0.000 A 
ATOM     16  C   UNL     1       8.670   2.460  23.352  0.00  0.00    +0.000 A 
ATOM     17  C   UNL     1       8.477   2.181  21.919  0.00  0.00    +0.000 A 
ATOM     18  C   UNL     1       9.312   0.956  21.452  0.00  0.00    +0.000 A 
ATOM     19  C   UNL     1       9.659   0.096  22.676  0.00  0.00    +0.000 A 
ENDBRANCH  12  19
ENDBRANCH   1  12
TORSDOF 3
ENDMDL
MODEL 3
REMARK VINA RESULT:      -5.9      3.404      6.639
REMARK  Name = 
REMARK  3 active torsions:
REMARK  status: ('A' for Active; 'I' for Inactive)
REMARK    1  A    between atoms: C_7  and  C_8
REMARK    2  A    between atoms: C_8  and  N_9
REMARK    3  A    between atoms: C_16  and  C_18
REMARK                            x       y       z     vdW  Elec       q    Type
REMARK                         _______ _______ _______ _____ _____    ______ ____
ROOT
ATOM      1  N   UNL     1       8.578  -2.232  23.939  0.00  0.00    +0.000 NA
ATOM      2  C   UNL     1       8.218  -1.514  25.105  0.00  0.00    +0.000 C 
ATOM      3  C   UNL     1       9.147  -0.387  25.437  0.00  0.00    +0.000 C 
ATOM      4  C   UNL     1       8.660   0.944  24.901  0.00  0.00    +0.000 C 
ATOM      5  N   UNL     1       8.908   0.976  23.462  0.00  0.00    +0.000 N 
ATOM      6  C   UNL     1       8.445  -0.161  22.672  0.00  0.00    +0.000 C 
ATOM      7  C   UNL     1       9.277  -1.377  23.028  0.00  0.00    +0.000 C 
ATOM      8  C   UNL     1       9.141   2.153  22.854  0.00  0.00    +0.000 C 
ATOM      9  O   UNL     1       8.378   2.581  22.012  0.00  0.00    +0.000 OA
ENDROOT
BRANCH   8  10
ATOM     10  C   UNL     1      10.449   2.836  23.165  0.00  0.00    +0.000 C 
ATOM     11 CL   UNL     1      10.150   4.452  23.852  0.00  0.00    +0.000 Cl
ENDBRANCH   8  10
BRANCH   1  12
ATOM     12  C   UNL     1       9.507  -3.293  24.305  0.00  0.00    +0.000 C 
BRANCH  12  19
ATOM     13  C   UNL     1       7.356  -5.810  22.411  0.00  0.00    +0.000 C 
ATOM     14  C   UNL     1       7.486  -4.673  23.466  0.00  0.00    +0.000 A 
ATOM     15  C   UNL     1       6.034  -4.845  24.309  0.00  0.00    +0.000 A 
ATOM     16  C   UNL     1       6.388  -5.386  25.663  0.00  0.00    +0.000 A 
ATOM     17  C   UNL     1       7.537  -5.315  26.581  0.00  0.00    +0.000 A 
ATOM     18  C   UNL     1       8.879  -5.145  25.815  0.00  0.00    +0.000 A 
ATOM     19  C   UNL     1       8.584  -4.580  24.418  0.00  0.00    +0.000 A 
ENDBRANCH  12  19
ENDBRANCH   1  12
TORSDOF 3
ENDMDL
MODEL 4
REMARK VINA RESULT:      -5.8      2.645      3.493
REMARK  Name = 
REMARK  3 active torsions:
REMARK  status: ('A' for Active; 'I' for Inactive)
REMARK    1  A    between atoms: C_7  and  C_8
REMARK    2  A    between atoms: C_8  and  N_9
REMARK    3  A    between atoms: C_16  and  C_18
REMARK                            x       y       z     vdW  Elec       q    Type
REMARK                         _______ _______ _______ _____ _____    ______ ____
ROOT
ATOM      1  N   UNL     1       8.904  -1.831  23.758  0.00  0.00    +0.000 NA
ATOM      2  C   UNL     1       9.388  -3.097  24.168  0.00  0.00    +0.000 C 
ATOM      3  C   UNL     1       8.324  -4.020  24.678  0.00  0.00    +0.000 C 
ATOM      4  C   UNL     1       7.811  -4.961  23.607  0.00  0.00    +0.000 C 
ATOM      5  N   UNL     1       6.930  -4.208  22.719  0.00  0.00    +0.000 N 
ATOM      6  C   UNL     1       7.434  -2.950  22.178  0.00  0.00    +0.000 C 
ATOM      7  C   UNL     1       7.551  -1.942  23.304  0.00  0.00    +0.000 C 
ATOM      8  C   UNL     1       5.918  -4.838  22.097  0.00  0.00    +0.000 C 
ATOM      9  O   UNL     1       5.888  -4.924  20.886  0.00  0.00    +0.000 OA
ENDROOT
BRANCH   8  10
ATOM     10  C   UNL     1       4.769  -5.301  22.957  0.00  0.00    +0.000 C 
ATOM     11 CL   UNL     1       4.209  -3.973  24.003  0.00  0.00    +0.000 Cl
ENDBRANCH   8  10
BRANCH   1  12
ATOM     12  C   UNL     1       8.881  -0.939  24.910  0.00  0.00    +0.000 C 
BRANCH  12  19
ATOM     13  C   UNL     1       8.205   2.804  25.189  0.00  0.00    +0.000 C 
ATOM     14  C   UNL     1       8.072   1.466  24.406  0.00  0.00    +0.000 A 
ATOM     15  C   UNL     1       7.653   2.028  22.871  0.00  0.00    +0.000 A 
ATOM     16  C   UNL     1       8.842   1.783  21.988  0.00  0.00    +0.000 A 
ATOM     17  C   UNL     1       9.951   0.816  21.923  0.00  0.00    +0.000 A 
ATOM     18  C   UNL     1      10.336   0.284  23.331  0.00  0.00    +0.000 A 
ATOM     19  C   UNL     1       9.149   0.494  24.283  0.00  0.00    +0.000 A 
ENDBRANCH  12  19
ENDBRANCH   1  12
TORSDOF 3
ENDMDL
MODEL 5
REMARK VINA RESULT:      -5.8      2.457      3.518
REMARK  Name = 
REMARK  3 active torsions:
REMARK  status: ('A' for Active; 'I' for Inactive)
REMARK    1  A    between atoms: C_7  and  C_8
REMARK    2  A    between atoms: C_8  and  N_9
REMARK    3  A    between atoms: C_16  and  C_18
REMARK                            x       y       z     vdW  Elec       q    Type
REMARK                         _______ _______ _______ _____ _____    ______ ____
ROOT
ATOM      1  N   UNL     1       8.104  -1.764  23.230  0.00  0.00    +0.000 NA
ATOM      2  C   UNL     1       8.961  -2.807  23.656  0.00  0.00    +0.000 C 
ATOM      3  C   UNL     1       8.272  -3.875  24.448  0.00  0.00    +0.000 C 
ATOM      4  C   UNL     1       7.854  -5.053  23.591  0.00  0.00    +0.000 C 
ATOM      5  N   UNL     1       6.675  -4.665  22.822  0.00  0.00    +0.000 N 
ATOM      6  C   UNL     1       6.739  -3.412  22.077  0.00  0.00    +0.000 C 
ATOM      7  C   UNL     1       6.772  -2.257  23.059  0.00  0.00    +0.000 C 
ATOM      8  C   UNL     1       5.774  -5.599  22.470  0.00  0.00    +0.000 C 
ATOM      9  O   UNL     1       5.572  -5.860  21.301  0.00  0.00    +0.000 OA
ENDROOT
BRANCH   8  10
ATOM     10  C   UNL     1       4.942  -6.198  23.576  0.00  0.00    +0.000 C 
ATOM     11 CL   UNL     1       4.373  -4.919  24.678  0.00  0.00    +0.000 Cl
ENDBRANCH   8  10
BRANCH   1  12
ATOM     12  C   UNL     1       8.038  -0.750  24.274  0.00  0.00    +0.000 C 
BRANCH  12  19
ATOM     13  C   UNL     1       7.916   0.934  20.854  0.00  0.00    +0.000 C 
ATOM     14  C   UNL     1       8.708   0.541  22.136  0.00  0.00    +0.000 A 
ATOM     15  C   UNL     1      10.040   1.572  22.022  0.00  0.00    +0.000 A 
ATOM     16  C   UNL     1       9.880   2.596  23.107  0.00  0.00    +0.000 A 
ATOM     17  C   UNL     1       9.263   2.659  24.443  0.00  0.00    +0.000 A 
ATOM     18  C   UNL     1       8.042   1.704  24.561  0.00  0.00    +0.000 A 
ATOM     19  C   UNL     1       8.155   0.619  23.480  0.00  0.00    +0.000 A 
ENDBRANCH  12  19
ENDBRANCH   1  12
TORSDOF 3
ENDMDL
MODEL 6
REMARK VINA RESULT:      -5.8      3.244      6.452
REMARK  Name = 
REMARK  3 active torsions:
REMARK  status: ('A' for Active; 'I' for Inactive)
REMARK    1  A    between atoms: C_7  and  C_8
REMARK    2  A    between atoms: C_8  and  N_9
REMARK    3  A    between atoms: C_16  and  C_18
REMARK                            x       y       z     vdW  Elec       q    Type
REMARK                         _______ _______ _______ _____ _____    ______ ____
ROOT
ATOM      1  N   UNL     1       7.915  -2.789  23.962  0.00  0.00    +0.000 NA
ATOM      2  C   UNL     1       8.393  -2.698  22.633  0.00  0.00    +0.000 C 
ATOM      3  C   UNL     1       8.356  -1.312  22.065  0.00  0.00    +0.000 C 
ATOM      4  C   UNL     1       9.680  -0.590  22.212  0.00  0.00    +0.000 C 
ATOM      5  N   UNL     1       9.821  -0.170  23.603  0.00  0.00    +0.000 N 
ATOM      6  C   UNL     1       9.603  -1.176  24.638  0.00  0.00    +0.000 C 
ATOM      7  C   UNL     1       8.135  -1.555  24.653  0.00  0.00    +0.000 C 
ATOM      8  C   UNL     1      10.529   0.936  23.894  0.00  0.00    +0.000 C 
ATOM      9  O   UNL     1      11.545   0.869  24.557  0.00  0.00    +0.000 OA
ENDROOT
BRANCH   8  10
ATOM     10  C   UNL     1       9.933   2.259  23.482  0.00  0.00    +0.000 C 
ATOM     11 CL   UNL     1      11.205   3.501  23.381  0.00  0.00    +0.000 Cl
ENDBRANCH   8  10
BRANCH   1  12
ATOM     12  C   UNL     1       6.472  -2.992  23.932  0.00  0.00    +0.000 C 
BRANCH  12  19
ATOM     13  C   UNL     1       6.198  -5.846  21.416  0.00  0.00    +0.000 C 
ATOM     14  C   UNL     1       5.575  -4.994  22.560  0.00  0.00    +0.000 A 
ATOM     15  C   UNL     1       4.296  -5.983  23.042  0.00  0.00    +0.000 A 
ATOM     16  C   UNL     1       4.660  -6.521  24.395  0.00  0.00    +0.000 A 
ATOM     17  C   UNL     1       5.461  -6.077  25.548  0.00  0.00    +0.000 A 
ATOM     18  C   UNL     1       6.635  -5.156  25.114  0.00  0.00    +0.000 A 
ATOM     19  C   UNL     1       6.316  -4.560  23.735  0.00  0.00    +0.000 A 
ENDBRANCH  12  19
ENDBRANCH   1  12
TORSDOF 3
ENDMDL
MODEL 7
REMARK VINA RESULT:      -5.7      1.982      2.952
REMARK  Name = 
REMARK  3 active torsions:
REMARK  status: ('A' for Active; 'I' for Inactive)
REMARK    1  A    between atoms: C_7  and  C_8
REMARK    2  A    between atoms: C_8  and  N_9
REMARK    3  A    between atoms: C_16  and  C_18
REMARK                            x       y       z     vdW  Elec       q    Type
REMARK                         _______ _______ _______ _____ _____    ______ ____
ROOT
ATOM      1  N   UNL     1       8.542  -1.906  23.850  0.00  0.00    +0.000 NA
ATOM      2  C   UNL     1       9.445  -2.996  23.893  0.00  0.00    +0.000 C 
ATOM      3  C   UNL     1       9.265  -3.890  25.082  0.00  0.00    +0.000 C 
ATOM      4  C   UNL     1       8.390  -5.090  24.777  0.00  0.00    +0.000 C 
ATOM      5  N   UNL     1       7.001  -4.642  24.725  0.00  0.00    +0.000 N 
ATOM      6  C   UNL     1       6.695  -3.487  23.887  0.00  0.00    +0.000 C 
ATOM      7  C   UNL     1       7.318  -2.252  24.507  0.00  0.00    +0.000 C 
ATOM      8  C   UNL     1       6.016  -5.493  25.063  0.00  0.00    +0.000 C 
ATOM      9  O   UNL     1       5.188  -5.844  24.247  0.00  0.00    +0.000 OA
ENDROOT
BRANCH   8  10
ATOM     10  C   UNL     1       5.912  -5.874  26.519  0.00  0.00    +0.000 C 
ATOM     11 CL   UNL     1       6.192  -4.448  27.549  0.00  0.00    +0.000 Cl
ENDBRANCH   8  10
BRANCH   1  12
ATOM     12  C   UNL     1       9.111  -0.792  24.598  0.00  0.00    +0.000 C 
BRANCH  12  19
ATOM     13  C   UNL     1       8.509   0.512  21.064  0.00  0.00    +0.000 C 
ATOM     14  C   UNL     1       9.351   0.507  22.373  0.00  0.00    +0.000 A 
ATOM     15  C   UNL     1      10.243   1.928  22.191  0.00  0.00    +0.000 A 
ATOM     16  C   UNL     1       9.705   2.901  23.199  0.00  0.00    +0.000 A 
ATOM     17  C   UNL     1       9.066   2.833  24.524  0.00  0.00    +0.000 A 
ATOM     18  C   UNL     1       8.252   1.522  24.706  0.00  0.00    +0.000 A 
ATOM     19  C   UNL     1       8.766   0.476  23.706  0.00  0.00    +0.000 A 
ENDBRANCH  12  19
ENDBRANCH   1  12
TORSDOF 3
ENDMDL
MODEL 8
REMARK VINA RESULT:      -5.7      2.149      3.032
REMARK  Name = 
REMARK  3 active torsions:
REMARK  status: ('A' for Active; 'I' for Inactive)
REMARK    1  A    between atoms: C_7  and  C_8
REMARK    2  A    between atoms: C_8  and  N_9
REMARK    3  A    between atoms: C_16  and  C_18
REMARK                            x       y       z     vdW  Elec       q    Type
REMARK                         _______ _______ _______ _____ _____    ______ ____
ROOT
ATOM      1  N   UNL     1       7.621  -1.853  25.281  0.00  0.00    +0.000 NA
ATOM      2  C   UNL     1       6.630  -1.422  26.196  0.00  0.00    +0.000 C 
ATOM      3  C   UNL     1       5.440  -2.328  26.275  0.00  0.00    +0.000 C 
ATOM      4  C   UNL     1       5.545  -3.326  27.411  0.00  0.00    +0.000 C 
ATOM      5  N   UNL     1       6.490  -4.369  27.018  0.00  0.00    +0.000 N 
ATOM      6  C   UNL     1       7.790  -3.944  26.510  0.00  0.00    +0.000 C 
ATOM      7  C   UNL     1       7.598  -3.279  25.161  0.00  0.00    +0.000 C 
ATOM      8  C   UNL     1       6.344  -5.614  27.503  0.00  0.00    +0.000 C 
ATOM      9  O   UNL     1       7.193  -6.108  28.217  0.00  0.00    +0.000 OA
ENDROOT
BRANCH   8  10
ATOM     10  C   UNL     1       5.158  -6.406  27.010  0.00  0.00    +0.000 C 
ATOM     11 CL   UNL     1       5.100  -6.381  25.231  0.00  0.00    +0.000 Cl
ENDBRANCH   8  10
BRANCH   1  12
ATOM     12  C   UNL     1       7.307  -1.323  23.961  0.00  0.00    +0.000 C 
BRANCH  12  19
ATOM     13  C   UNL     1      10.599   0.327  24.955  0.00  0.00    +0.000 C 
ATOM     14  C   UNL     1       9.240   0.380  24.198  0.00  0.00    +0.000 A 
ATOM     15  C   UNL     1       9.502   1.676  23.149  0.00  0.00    +0.000 A 
ATOM     16  C   UNL     1       9.614   1.092  21.771  0.00  0.00    +0.000 A 
ATOM     17  C   UNL     1       9.085  -0.081  21.055  0.00  0.00    +0.000 A 
ATOM     18  C   UNL     1       8.829  -1.276  22.015  0.00  0.00    +0.000 A 
ATOM     19  C   UNL     1       8.692  -0.741  23.448  0.00  0.00    +0.000 A 
ENDBRANCH  12  19
ENDBRANCH   1  12
TORSDOF 3
ENDMDL
MODEL 9
REMARK VINA RESULT:      -5.6      2.136      3.283
REMARK  Name = 
REMARK  3 active torsions:
REMARK  status: ('A' for Active; 'I' for Inactive)
REMARK    1  A    between atoms: C_7  and  C_8
REMARK    2  A    between atoms: C_8  and  N_9
REMARK    3  A    between atoms: C_16  and  C_18
REMARK                            x       y       z     vdW  Elec       q    Type
REMARK                         _______ _______ _______ _____ _____    ______ ____
ROOT
ATOM      1  N   UNL     1       8.532  -2.555  24.662  0.00  0.00    +0.000 NA
ATOM      2  C   UNL     1       7.264  -1.934  24.769  0.00  0.00    +0.000 C 
ATOM      3  C   UNL     1       6.174  -2.643  24.023  0.00  0.00    +0.000 C 
ATOM      4  C   UNL     1       5.388  -3.589  24.908  0.00  0.00    +0.000 C 
ATOM      5  N   UNL     1       6.200  -4.781  25.138  0.00  0.00    +0.000 N 
ATOM      6  C   UNL     1       7.573  -4.585  25.593  0.00  0.00    +0.000 C 
ATOM      7  C   UNL     1       8.378  -3.965  24.468  0.00  0.00    +0.000 C 
ATOM      8  C   UNL     1       5.597  -5.965  25.346  0.00  0.00    +0.000 C 
ATOM      9  O   UNL     1       5.717  -6.548  26.405  0.00  0.00    +0.000 OA
ENDROOT
BRANCH   8  10
ATOM     10  C   UNL     1       4.890  -6.589  24.169  0.00  0.00    +0.000 C 
ATOM     11 CL   UNL     1       5.821  -6.312  22.676  0.00  0.00    +0.000 Cl
ENDBRANCH   8  10
BRANCH   1  12
ATOM     12  C   UNL     1       9.207  -2.047  23.474  0.00  0.00    +0.000 C 
BRANCH  12  19
ATOM     13  C   UNL     1       7.299   1.100  22.469  0.00  0.00    +0.000 C 
ATOM     14  C   UNL     1       8.609   0.259  22.466  0.00  0.00    +0.000 A 
ATOM     15  C   UNL     1       9.744   1.428  22.022  0.00  0.00    +0.000 A 
ATOM     16  C   UNL     1      10.577   1.698  23.241  0.00  0.00    +0.000 A 
ATOM     17  C   UNL     1      11.014   0.948  24.431  0.00  0.00    +0.000 A 
ATOM     18  C   UNL     1       9.981  -0.139  24.840  0.00  0.00    +0.000 A 
ATOM     19  C   UNL     1       9.102  -0.470  23.626  0.00  0.00    +0.000 A 
ENDBRANCH  12  19
ENDBRANCH   1  12
TORSDOF 3
ENDMDL
