MODEL 1
REMARK VINA RESULT:      -5.6      0.000      0.000
REMARK  Name = 
REMARK  2 active torsions:
REMARK  status: ('A' for Active; 'I' for Inactive)
REMARK    1  A    between atoms: C_8  and  C_10
REMARK    2  A    between atoms: C_10  and  N_11
REMARK                            x       y       z     vdW  Elec       q    Type
REMARK                         _______ _______ _______ _____ _____    ______ ____
ROOT
ATOM      1  C   UNL     1       9.940  -2.411  23.739  0.00  0.00    +0.000 C 
ATOM      2  C   UNL     1       8.849  -1.790  24.545  0.00  0.00    +0.000 C 
ATOM      3  C   UNL     1       7.738  -1.239  23.684  0.00  0.00    +0.000 C 
ATOM      4  N   UNL     1       8.238  -0.011  23.041  0.00  0.00    +0.000 N 
ATOM      5  C   UNL     1       8.843   0.961  23.935  0.00  0.00    +0.000 C 
ATOM      6  C   UNL     1       9.759   0.302  24.914  0.00  0.00    +0.000 C 
ATOM      7  O   UNL     1       9.280  -0.863  25.438  0.00  0.00    +0.000 OA
ATOM      8  C   UNL     1       8.628  -0.102  21.743  0.00  0.00    +0.000 C 
ATOM      9  O   UNL     1       9.586   0.574  21.358  0.00  0.00    +0.000 OA
ENDROOT
BRANCH   8  10
ATOM     10  C   UNL     1       7.526  -0.431  20.766  0.00  0.00    +0.000 C 
BRANCH  10  11
ATOM     11  N   UNL     1       7.311   0.630  19.815  0.00  0.00    +0.000 N 
ATOM     12  C   UNL     1       6.150   1.424  20.058  0.00  0.00    +0.000 A 
ATOM     13  C   UNL     1       5.160   1.008  19.009  0.00  0.00    +0.000 A 
ATOM     14  C   UNL     1       5.981   0.205  18.068  0.00  0.00    +0.000 A 
ATOM     15  N   UNL     1       7.205   0.123  18.495  0.00  0.00    +0.000 NA
ENDBRANCH  10  11
ENDBRANCH   8  10
TORSDOF 2
ENDMDL
MODEL 2
REMARK VINA RESULT:      -5.5      1.567      1.942
REMARK  Name = 
REMARK  2 active torsions:
REMARK  status: ('A' for Active; 'I' for Inactive)
REMARK    1  A    between atoms: C_8  and  C_10
REMARK    2  A    between atoms: C_10  and  N_11
REMARK                            x       y       z     vdW  Elec       q    Type
REMARK                         _______ _______ _______ _____ _____    ______ ____
ROOT
ATOM      1  C   UNL     1       8.660   0.204  25.023  0.00  0.00    +0.000 C 
ATOM      2  C   UNL     1       8.455   1.610  24.570  0.00  0.00    +0.000 C 
ATOM      3  C   UNL     1       7.781   1.688  23.221  0.00  0.00    +0.000 C 
ATOM      4  N   UNL     1       8.770   1.290  22.204  0.00  0.00    +0.000 N 
ATOM      5  C   UNL     1      10.050   1.971  22.275  0.00  0.00    +0.000 C 
ATOM      6  C   UNL     1      10.542   2.057  23.683  0.00  0.00    +0.000 C 
ATOM      7  O   UNL     1       9.580   2.369  24.598  0.00  0.00    +0.000 OA
ATOM      8  C   UNL     1       8.677   0.029  21.707  0.00  0.00    +0.000 C 
ATOM      9  O   UNL     1       9.713  -0.579  21.421  0.00  0.00    +0.000 OA
ENDROOT
BRANCH   8  10
ATOM     10  C   UNL     1       7.422  -0.258  20.920  0.00  0.00    +0.000 C 
BRANCH  10  11
ATOM     11  N   UNL     1       7.240   0.669  19.832  0.00  0.00    +0.000 N 
ATOM     12  C   UNL     1       6.044   1.444  19.901  0.00  0.00    +0.000 A 
ATOM     13  C   UNL     1       5.136   0.867  18.854  0.00  0.00    +0.000 A 
ATOM     14  C   UNL     1       6.039  -0.017  18.074  0.00  0.00    +0.000 A 
ATOM     15  N   UNL     1       7.234  -0.002  18.583  0.00  0.00    +0.000 NA
ENDBRANCH  10  11
ENDBRANCH   8  10
TORSDOF 2
ENDMDL
MODEL 3
REMARK VINA RESULT:      -5.4      2.429      5.624
REMARK  Name = 
REMARK  2 active torsions:
REMARK  status: ('A' for Active; 'I' for Inactive)
REMARK    1  A    between atoms: C_8  and  C_10
REMARK    2  A    between atoms: C_10  and  N_11
REMARK                            x       y       z     vdW  Elec       q    Type
REMARK                         _______ _______ _______ _____ _____    ______ ____
ROOT
ATOM      1  C   UNL     1       9.945   1.878  22.252  0.00  0.00    +0.000 C 
ATOM      2  C   UNL     1       8.477   1.635  22.352  0.00  0.00    +0.000 C 
ATOM      3  C   UNL     1       8.144   0.483  23.270  0.00  0.00    +0.000 C 
ATOM      4  N   UNL     1       8.508  -0.764  22.573  0.00  0.00    +0.000 N 
ATOM      5  C   UNL     1       7.988  -0.902  21.224  0.00  0.00    +0.000 C 
ATOM      6  C   UNL     1       8.147   0.365  20.448  0.00  0.00    +0.000 C 
ATOM      7  O   UNL     1       7.857   1.497  21.152  0.00  0.00    +0.000 OA
ATOM      8  C   UNL     1       9.673  -1.361  22.936  0.00  0.00    +0.000 C 
ATOM      9  O   UNL     1      10.347  -1.931  22.073  0.00  0.00    +0.000 OA
ENDROOT
BRANCH   8  10
ATOM     10  C   UNL     1       9.712  -1.880  24.352  0.00  0.00    +0.000 C 
BRANCH  10  11
ATOM     11  N   UNL     1       8.758  -2.939  24.568  0.00  0.00    +0.000 N 
ATOM     12  C   UNL     1       8.188  -2.972  25.876  0.00  0.00    +0.000 A 
ATOM     13  C   UNL     1       8.833  -4.140  26.561  0.00  0.00    +0.000 A 
ATOM     14  C   UNL     1       9.513  -4.851  25.448  0.00  0.00    +0.000 A 
ATOM     15  N   UNL     1       9.341  -4.210  24.333  0.00  0.00    +0.000 NA
ENDBRANCH  10  11
ENDBRANCH   8  10
TORSDOF 2
ENDMDL
MODEL 4
REMARK VINA RESULT:      -5.3      2.217      2.865
REMARK  Name = 
REMARK  2 active torsions:
REMARK  status: ('A' for Active; 'I' for Inactive)
REMARK    1  A    between atoms: C_8  and  C_10
REMARK    2  A    between atoms: C_10  and  N_11
REMARK                            x       y       z     vdW  Elec       q    Type
REMARK                         _______ _______ _______ _____ _____    ______ ____
ROOT
ATOM      1  C   UNL     1       8.965  -1.721  25.278  0.00  0.00    +0.000 C 
ATOM      2  C   UNL     1       9.695  -2.436  24.192  0.00  0.00    +0.000 C 
ATOM      3  C   UNL     1       9.300  -1.952  22.817  0.00  0.00    +0.000 C 
ATOM      4  N   UNL     1       7.952  -2.472  22.530  0.00  0.00    +0.000 N 
ATOM      5  C   UNL     1       7.773  -3.897  22.738  0.00  0.00    +0.000 C 
ATOM      6  C   UNL     1       8.399  -4.342  24.020  0.00  0.00    +0.000 C 
ATOM      7  O   UNL     1       9.620  -3.789  24.273  0.00  0.00    +0.000 OA
ATOM      8  C   UNL     1       6.910  -1.611  22.671  0.00  0.00    +0.000 C 
ATOM      9  O   UNL     1       5.832  -2.040  23.092  0.00  0.00    +0.000 OA
ENDROOT
BRANCH   8  10
ATOM     10  C   UNL     1       6.908  -0.447  21.711  0.00  0.00    +0.000 C 
BRANCH  10  11
ATOM     11  N   UNL     1       7.089  -0.870  20.346  0.00  0.00    +0.000 N 
ATOM     12  C   UNL     1       7.833   0.037  19.533  0.00  0.00    +0.000 A 
ATOM     13  C   UNL     1       6.821   0.685  18.634  0.00  0.00    +0.000 A 
ATOM     14  C   UNL     1       5.610  -0.151  18.831  0.00  0.00    +0.000 A 
ATOM     15  N   UNL     1       5.842  -1.082  19.705  0.00  0.00    +0.000 NA
ENDBRANCH  10  11
ENDBRANCH   8  10
TORSDOF 2
ENDMDL
MODEL 5
REMARK VINA RESULT:      -5.2      2.832      5.177
REMARK  Name = 
REMARK  2 active torsions:
REMARK  status: ('A' for Active; 'I' for Inactive)
REMARK    1  A    between atoms: C_8  and  C_10
REMARK    2  A    between atoms: C_10  and  N_11
REMARK                            x       y       z     vdW  Elec       q    Type
REMARK                         _______ _______ _______ _____ _____    ______ ____
ROOT
ATOM      1  C   UNL     1      10.981   0.641  24.609  0.00  0.00    +0.000 C 
ATOM      2  C   UNL     1       9.757   1.431  24.291  0.00  0.00    +0.000 C 
ATOM      3  C   UNL     1       8.535   0.558  24.125  0.00  0.00    +0.000 C 
ATOM      4  N   UNL     1       8.661  -0.147  22.838  0.00  0.00    +0.000 N 
ATOM      5  C   UNL     1       8.959   0.692  21.691  0.00  0.00    +0.000 C 
ATOM      6  C   UNL     1      10.024   1.690  22.010  0.00  0.00    +0.000 C 
ATOM      7  O   UNL     1       9.901   2.274  23.237  0.00  0.00    +0.000 OA
ATOM      8  C   UNL     1       9.064  -1.444  22.876  0.00  0.00    +0.000 C 
ATOM      9  O   UNL     1       9.788  -1.873  21.972  0.00  0.00    +0.000 OA
ENDROOT
BRANCH   8  10
ATOM     10  C   UNL     1       8.106  -2.392  23.554  0.00  0.00    +0.000 C 
BRANCH  10  11
ATOM     11  N   UNL     1       8.605  -3.744  23.576  0.00  0.00    +0.000 N 
ATOM     12  C   UNL     1       7.629  -4.736  23.893  0.00  0.00    +0.000 A 
ATOM     13  C   UNL     1       7.943  -5.167  25.296  0.00  0.00    +0.000 A 
ATOM     14  C   UNL     1       9.280  -4.569  25.542  0.00  0.00    +0.000 A 
ATOM     15  N   UNL     1       9.664  -3.884  24.508  0.00  0.00    +0.000 NA
ENDBRANCH  10  11
ENDBRANCH   8  10
TORSDOF 2
ENDMDL
MODEL 6
REMARK VINA RESULT:      -5.2      2.804      4.803
REMARK  Name = 
REMARK  2 active torsions:
REMARK  status: ('A' for Active; 'I' for Inactive)
REMARK    1  A    between atoms: C_8  and  C_10
REMARK    2  A    between atoms: C_10  and  N_11
REMARK                            x       y       z     vdW  Elec       q    Type
REMARK                         _______ _______ _______ _____ _____    ______ ____
ROOT
ATOM      1  C   UNL     1       7.915   0.386  21.947  0.00  0.00    +0.000 C 
ATOM      2  C   UNL     1       9.362   0.333  21.591  0.00  0.00    +0.000 C 
ATOM      3  C   UNL     1      10.033  -0.926  22.085  0.00  0.00    +0.000 C 
ATOM      4  N   UNL     1      10.189  -0.806  23.546  0.00  0.00    +0.000 N 
ATOM      5  C   UNL     1      10.806   0.424  24.010  0.00  0.00    +0.000 C 
ATOM      6  C   UNL     1      10.246   1.614  23.300  0.00  0.00    +0.000 C 
ATOM      7  O   UNL     1      10.063   1.436  21.960  0.00  0.00    +0.000 OA
ATOM      8  C   UNL     1       9.300  -1.477  24.324  0.00  0.00    +0.000 C 
ATOM      9  O   UNL     1       8.933  -0.968  25.387  0.00  0.00    +0.000 OA
ENDROOT
BRANCH   8  10
ATOM     10  C   UNL     1       9.365  -2.981  24.218  0.00  0.00    +0.000 C 
BRANCH  10  11
ATOM     11  N   UNL     1       8.056  -3.583  24.249  0.00  0.00    +0.000 N 
ATOM     12  C   UNL     1       8.050  -5.006  24.145  0.00  0.00    +0.000 A 
ATOM     13  C   UNL     1       7.564  -5.300  22.756  0.00  0.00    +0.000 A 
ATOM     14  C   UNL     1       7.051  -3.985  22.292  0.00  0.00    +0.000 A 
ATOM     15  N   UNL     1       7.236  -3.082  23.207  0.00  0.00    +0.000 NA
ENDBRANCH  10  11
ENDBRANCH   8  10
TORSDOF 2
ENDMDL
MODEL 7
REMARK VINA RESULT:      -5.2      2.832      4.020
REMARK  Name = 
REMARK  2 active torsions:
REMARK  status: ('A' for Active; 'I' for Inactive)
REMARK    1  A    between atoms: C_8  and  C_10
REMARK    2  A    between atoms: C_10  and  N_11
REMARK                            x       y       z     vdW  Elec       q    Type
REMARK                         _______ _______ _______ _____ _____    ______ ____
ROOT
ATOM      1  C   UNL     1      10.845   0.630  24.665  0.00  0.00    +0.000 C 
ATOM      2  C   UNL     1       9.622   1.396  24.289  0.00  0.00    +0.000 C 
ATOM      3  C   UNL     1       8.442   0.497  24.010  0.00  0.00    +0.000 C 
ATOM      4  N   UNL     1       8.676  -0.159  22.711  0.00  0.00    +0.000 N 
ATOM      5  C   UNL     1       9.027   0.728  21.617  0.00  0.00    +0.000 C 
ATOM      6  C   UNL     1      10.038   1.743  22.042  0.00  0.00    +0.000 C 
ATOM      7  O   UNL     1       9.813   2.279  23.276  0.00  0.00    +0.000 OA
ATOM      8  C   UNL     1       9.113  -1.445  22.734  0.00  0.00    +0.000 C 
ATOM      9  O   UNL     1       9.910  -1.821  21.869  0.00  0.00    +0.000 OA
ENDROOT
BRANCH   8  10
ATOM     10  C   UNL     1       8.139  -2.442  23.313  0.00  0.00    +0.000 C 
BRANCH  10  11
ATOM     11  N   UNL     1       7.440  -3.174  22.287  0.00  0.00    +0.000 N 
ATOM     12  C   UNL     1       6.111  -2.723  22.032  0.00  0.00    +0.000 A 
ATOM     13  C   UNL     1       5.215  -3.765  22.636  0.00  0.00    +0.000 A 
ATOM     14  C   UNL     1       6.148  -4.883  22.930  0.00  0.00    +0.000 A 
ATOM     15  N   UNL     1       7.362  -4.554  22.606  0.00  0.00    +0.000 NA
ENDBRANCH  10  11
ENDBRANCH   8  10
TORSDOF 2
ENDMDL
MODEL 8
REMARK VINA RESULT:      -5.1      3.022      4.471
REMARK  Name = 
REMARK  2 active torsions:
REMARK  status: ('A' for Active; 'I' for Inactive)
REMARK    1  A    between atoms: C_8  and  C_10
REMARK    2  A    between atoms: C_10  and  N_11
REMARK                            x       y       z     vdW  Elec       q    Type
REMARK                         _______ _______ _______ _____ _____    ______ ____
ROOT
ATOM      1  C   UNL     1       8.508   1.375  21.598  0.00  0.00    +0.000 C 
ATOM      2  C   UNL     1       9.682   0.474  21.784  0.00  0.00    +0.000 C 
ATOM      3  C   UNL     1       9.318  -0.985  21.645  0.00  0.00    +0.000 C 
ATOM      4  N   UNL     1       8.571  -1.376  22.854  0.00  0.00    +0.000 N 
ATOM      5  C   UNL     1       9.199  -1.032  24.117  0.00  0.00    +0.000 C 
ATOM      6  C   UNL     1       9.743   0.360  24.091  0.00  0.00    +0.000 C 
ATOM      7  O   UNL     1      10.374   0.697  22.930  0.00  0.00    +0.000 OA
ATOM      8  C   UNL     1       7.219  -1.463  22.748  0.00  0.00    +0.000 C 
ATOM      9  O   UNL     1       6.522  -1.133  23.712  0.00  0.00    +0.000 OA
ENDROOT
BRANCH   8  10
ATOM     10  C   UNL     1       6.718  -2.541  21.820  0.00  0.00    +0.000 C 
BRANCH  10  11
ATOM     11  N   UNL     1       6.248  -3.699  22.537  0.00  0.00    +0.000 N 
ATOM     12  C   UNL     1       7.279  -4.543  23.050  0.00  0.00    +0.000 A 
ATOM     13  C   UNL     1       7.276  -5.755  22.165  0.00  0.00    +0.000 A 
ATOM     14  C   UNL     1       6.017  -5.606  21.392  0.00  0.00    +0.000 A 
ATOM     15  N   UNL     1       5.413  -4.504  21.721  0.00  0.00    +0.000 NA
ENDBRANCH  10  11
ENDBRANCH   8  10
TORSDOF 2
ENDMDL
MODEL 9
REMARK VINA RESULT:      -5.1      2.957      4.122
REMARK  Name = 
REMARK  2 active torsions:
REMARK  status: ('A' for Active; 'I' for Inactive)
REMARK    1  A    between atoms: C_8  and  C_10
REMARK    2  A    between atoms: C_10  and  N_11
REMARK                            x       y       z     vdW  Elec       q    Type
REMARK                         _______ _______ _______ _____ _____    ______ ____
ROOT
ATOM      1  C   UNL     1       8.516  -3.960  26.175  0.00  0.00    +0.000 C 
ATOM      2  C   UNL     1       9.346  -4.272  24.975  0.00  0.00    +0.000 C 
ATOM      3  C   UNL     1       9.572  -3.062  24.101  0.00  0.00    +0.000 C 
ATOM      4  N   UNL     1       8.308  -2.772  23.402  0.00  0.00    +0.000 N 
ATOM      5  C   UNL     1       7.696  -3.899  22.720  0.00  0.00    +0.000 C 
ATOM      6  C   UNL     1       7.720  -5.127  23.572  0.00  0.00    +0.000 C 
ATOM      7  O   UNL     1       8.890  -5.322  24.246  0.00  0.00    +0.000 OA
ATOM      8  C   UNL     1       7.548  -1.755  23.887  0.00  0.00    +0.000 C 
ATOM      9  O   UNL     1       6.319  -1.854  23.844  0.00  0.00    +0.000 OA
ENDROOT
BRANCH   8  10
ATOM     10  C   UNL     1       8.175  -0.386  23.789  0.00  0.00    +0.000 C 
BRANCH  10  11
ATOM     11  N   UNL     1       8.406   0.008  22.422  0.00  0.00    +0.000 N 
ATOM     12  C   UNL     1       9.775   0.227  22.087  0.00  0.00    +0.000 A 
ATOM     13  C   UNL     1       9.924   1.716  21.978  0.00  0.00    +0.000 A 
ATOM     14  C   UNL     1       8.518   2.197  21.977  0.00  0.00    +0.000 A 
ATOM     15  N   UNL     1       7.700   1.196  22.104  0.00  0.00    +0.000 NA
ENDBRANCH  10  11
ENDBRANCH   8  10
TORSDOF 2
ENDMDL
