MODEL 1
REMARK VINA RESULT:      -5.9      0.000      0.000
REMARK  Name = 
REMARK  4 active torsions:
REMARK  status: ('A' for Active; 'I' for Inactive)
REMARK    1  A    between atoms: S_2  and  N_5
REMARK    2  A    between atoms: N_5  and  C_6
REMARK    3  A    between atoms: C_6  and  C_7
REMARK    4  A    between atoms: C_7  and  C_8
REMARK                            x       y       z     vdW  Elec       q    Type
REMARK                         _______ _______ _______ _____ _____    ______ ____
ROOT
ATOM      1  C   UNL     1       8.164  -0.527  21.091  0.00  0.00    +0.000 C 
ENDROOT
BRANCH   1   2
ATOM      2  C   UNL     1       9.531  -0.043  21.461  0.00  0.00    +0.000 A 
ATOM      3  C   UNL     1      10.086  -0.944  22.721  0.00  0.00    +0.000 A 
ATOM      4  C   UNL     1      10.521  -0.023  23.818  0.00  0.00    +0.000 A 
ATOM      5  C   UNL     1      10.596   1.420  24.080  0.00  0.00    +0.000 A 
ATOM      6  C   UNL     1      10.043   2.282  22.877  0.00  0.00    +0.000 A 
ATOM      7  C   UNL     1       9.675   1.391  21.759  0.00  0.00    +0.000 A 
ENDBRANCH   1   2
BRANCH   1   8
ATOM      8  C   UNL     1       7.461   0.541  20.251  0.00  0.00    +0.000 C 
BRANCH   8   9
ATOM      9  N   UNL     1       7.663   0.225  18.853  0.00  0.00    +0.000 NA
BRANCH   9  11
ATOM     10  C   UNL     1       5.053   1.142  19.221  0.00  0.00    +0.000 C 
ATOM     11  S   UNL     1       6.246   0.499  18.054  0.00  0.00    +0.000 S 
ATOM     12  O   UNL     1       6.461   1.514  17.064  0.00  0.00    +0.000 OA
ATOM     13  O   UNL     1       5.742  -0.757  17.578  0.00  0.00    +0.000 OA
ENDBRANCH   9  11
ENDBRANCH   8   9
ENDBRANCH   1   8
TORSDOF 4
ENDMDL
MODEL 2
REMARK VINA RESULT:      -5.4      0.649      1.548
REMARK  Name = 
REMARK  4 active torsions:
REMARK  status: ('A' for Active; 'I' for Inactive)
REMARK    1  A    between atoms: S_2  and  N_5
REMARK    2  A    between atoms: N_5  and  C_6
REMARK    3  A    between atoms: C_6  and  C_7
REMARK    4  A    between atoms: C_7  and  C_8
REMARK                            x       y       z     vdW  Elec       q    Type
REMARK                         _______ _______ _______ _____ _____    ______ ____
ROOT
ATOM      1  C   UNL     1       8.574  -0.293  20.812  0.00  0.00    +0.000 C 
ENDROOT
BRANCH   1   2
ATOM      2  C   UNL     1       8.487   0.390  22.141  0.00  0.00    +0.000 A 
ATOM      3  C   UNL     1       8.951   1.958  21.959  0.00  0.00    +0.000 A 
ATOM      4  C   UNL     1      10.022   2.263  22.961  0.00  0.00    +0.000 A 
ATOM      5  C   UNL     1      10.754   1.579  24.035  0.00  0.00    +0.000 A 
ATOM      6  C   UNL     1      10.320   0.068  24.193  0.00  0.00    +0.000 A 
ATOM      7  C   UNL     1       9.216  -0.230  23.260  0.00  0.00    +0.000 A 
ENDBRANCH   1   2
BRANCH   1   8
ATOM      8  C   UNL     1       7.258  -0.096  20.058  0.00  0.00    +0.000 C 
BRANCH   8   9
ATOM      9  N   UNL     1       7.567   0.312  18.703  0.00  0.00    +0.000 NA
BRANCH   9  11
ATOM     10  C   UNL     1       5.012   1.348  19.133  0.00  0.00    +0.000 C 
ATOM     11  S   UNL     1       6.150   0.664  17.936  0.00  0.00    +0.000 S 
ATOM     12  O   UNL     1       6.394   1.678  16.953  0.00  0.00    +0.000 OA
ATOM     13  O   UNL     1       5.577  -0.562  17.456  0.00  0.00    +0.000 OA
ENDBRANCH   9  11
ENDBRANCH   8   9
ENDBRANCH   1   8
TORSDOF 4
ENDMDL
MODEL 3
REMARK VINA RESULT:      -5.1      1.501      2.093
REMARK  Name = 
REMARK  4 active torsions:
REMARK  status: ('A' for Active; 'I' for Inactive)
REMARK    1  A    between atoms: S_2  and  N_5
REMARK    2  A    between atoms: N_5  and  C_6
REMARK    3  A    between atoms: C_6  and  C_7
REMARK    4  A    between atoms: C_7  and  C_8
REMARK                            x       y       z     vdW  Elec       q    Type
REMARK                         _______ _______ _______ _____ _____    ______ ____
ROOT
ATOM      1  C   UNL     1       9.096   1.406  21.560  0.00  0.00    +0.000 C 
ENDROOT
BRANCH   1   2
ATOM      2  C   UNL     1      10.092   0.599  22.330  0.00  0.00    +0.000 A 
ATOM      3  C   UNL     1       9.898  -0.988  21.941  0.00  0.00    +0.000 A 
ATOM      4  C   UNL     1       9.734  -1.777  23.203  0.00  0.00    +0.000 A 
ATOM      5  C   UNL     1       9.702  -1.544  24.653  0.00  0.00    +0.000 A 
ATOM      6  C   UNL     1       9.869  -0.016  25.022  0.00  0.00    +0.000 A 
ATOM      7  C   UNL     1      10.102   0.766  23.792  0.00  0.00    +0.000 A 
ENDBRANCH   1   2
BRANCH   1   8
ATOM      8  C   UNL     1       8.192   0.464  20.763  0.00  0.00    +0.000 C 
BRANCH   8   9
ATOM      9  N   UNL     1       6.927   1.132  20.535  0.00  0.00    +0.000 NA
BRANCH   9  11
ATOM     10  C   UNL     1       5.786  -1.148  19.401  0.00  0.00    +0.000 C 
ATOM     11  S   UNL     1       6.283   0.549  19.133  0.00  0.00    +0.000 S 
ATOM     12  O   UNL     1       5.098   1.295  18.822  0.00  0.00    +0.000 OA
ATOM     13  O   UNL     1       7.309   0.539  18.131  0.00  0.00    +0.000 OA
ENDBRANCH   9  11
ENDBRANCH   8   9
ENDBRANCH   1   8
TORSDOF 4
ENDMDL
MODEL 4
REMARK VINA RESULT:      -5.0      4.938      5.659
REMARK  Name = 
REMARK  4 active torsions:
REMARK  status: ('A' for Active; 'I' for Inactive)
REMARK    1  A    between atoms: S_2  and  N_5
REMARK    2  A    between atoms: N_5  and  C_6
REMARK    3  A    between atoms: C_6  and  C_7
REMARK    4  A    between atoms: C_7  and  C_8
REMARK                            x       y       z     vdW  Elec       q    Type
REMARK                         _______ _______ _______ _____ _____    ______ ____
ROOT
ATOM      1  C   UNL     1       9.341  -1.537  24.570  0.00  0.00    +0.000 C 
ENDROOT
BRANCH   1   2
ATOM      2  C   UNL     1      10.325  -0.721  23.792  0.00  0.00    +0.000 A 
ATOM      3  C   UNL     1      10.780   0.569  24.708  0.00  0.00    +0.000 A 
ATOM      4  C   UNL     1      10.581   1.820  23.909  0.00  0.00    +0.000 A 
ATOM      5  C   UNL     1      10.112   2.212  22.574  0.00  0.00    +0.000 A 
ATOM      6  C   UNL     1       9.657   0.973  21.706  0.00  0.00    +0.000 A 
ATOM      7  C   UNL     1       9.913  -0.274  22.453  0.00  0.00    +0.000 A 
ENDBRANCH   1   2
BRANCH   1   8
ATOM      8  C   UNL     1       9.436  -2.998  24.127  0.00  0.00    +0.000 C 
BRANCH   8   9
ATOM      9  N   UNL     1       8.179  -3.369  23.510  0.00  0.00    +0.000 NA
BRANCH   9  11
ATOM     10  C   UNL     1       7.343  -5.767  22.355  0.00  0.00    +0.000 C 
ATOM     11  S   UNL     1       7.886  -4.955  23.852  0.00  0.00    +0.000 S 
ATOM     12  O   UNL     1       9.114  -5.578  24.252  0.00  0.00    +0.000 OA
ATOM     13  O   UNL     1       6.803  -5.025  24.791  0.00  0.00    +0.000 OA
ENDBRANCH   9  11
ENDBRANCH   8   9
ENDBRANCH   1   8
TORSDOF 4
ENDMDL
MODEL 5
REMARK VINA RESULT:      -5.0      4.040      5.728
REMARK  Name = 
REMARK  4 active torsions:
REMARK  status: ('A' for Active; 'I' for Inactive)
REMARK    1  A    between atoms: S_2  and  N_5
REMARK    2  A    between atoms: N_5  and  C_6
REMARK    3  A    between atoms: C_6  and  C_7
REMARK    4  A    between atoms: C_7  and  C_8
REMARK                            x       y       z     vdW  Elec       q    Type
REMARK                         _______ _______ _______ _____ _____    ______ ____
ROOT
ATOM      1  C   UNL     1       8.333  -0.657  21.223  0.00  0.00    +0.000 C 
ENDROOT
BRANCH   1   2
ATOM      2  C   UNL     1       7.975   0.493  20.334  0.00  0.00    +0.000 A 
ATOM      3  C   UNL     1       6.998   1.520  21.169  0.00  0.00    +0.000 A 
ATOM      4  C   UNL     1       5.761   1.771  20.363  0.00  0.00    +0.000 A 
ATOM      5  C   UNL     1       5.189   1.373  19.070  0.00  0.00    +0.000 A 
ATOM      6  C   UNL     1       6.121   0.371  18.281  0.00  0.00    +0.000 A 
ATOM      7  C   UNL     1       7.376   0.169  19.030  0.00  0.00    +0.000 A 
ENDBRANCH   1   2
BRANCH   1   8
ATOM      8  C   UNL     1       9.782  -0.501  21.690  0.00  0.00    +0.000 C 
BRANCH   8   9
ATOM      9  N   UNL     1       9.806  -0.595  23.134  0.00  0.00    +0.000 NA
BRANCH   9  11
ATOM     10  C   UNL     1       8.736   1.491  24.648  0.00  0.00    +0.000 C 
ATOM     11  S   UNL     1      10.158   0.898  23.740  0.00  0.00    +0.000 S 
ATOM     12  O   UNL     1      11.239   0.776  24.675  0.00  0.00    +0.000 OA
ATOM     13  O   UNL     1      10.367   1.797  22.641  0.00  0.00    +0.000 OA
ENDBRANCH   9  11
ENDBRANCH   8   9
ENDBRANCH   1   8
TORSDOF 4
ENDMDL
MODEL 6
REMARK VINA RESULT:      -4.9      4.983      5.916
REMARK  Name = 
REMARK  4 active torsions:
REMARK  status: ('A' for Active; 'I' for Inactive)
REMARK    1  A    between atoms: S_2  and  N_5
REMARK    2  A    between atoms: N_5  and  C_6
REMARK    3  A    between atoms: C_6  and  C_7
REMARK    4  A    between atoms: C_7  and  C_8
REMARK                            x       y       z     vdW  Elec       q    Type
REMARK                         _______ _______ _______ _____ _____    ______ ____
ROOT
ATOM      1  C   UNL     1       9.388  -1.840  22.707  0.00  0.00    +0.000 C 
ENDROOT
BRANCH   1   2
ATOM      2  C   UNL     1      10.188  -0.588  22.525  0.00  0.00    +0.000 A 
ATOM      3  C   UNL     1      10.619  -0.018  24.007  0.00  0.00    +0.000 A 
ATOM      4  C   UNL     1      10.205   1.417  24.110  0.00  0.00    +0.000 A 
ATOM      5  C   UNL     1       9.545   2.436  23.283  0.00  0.00    +0.000 A 
ATOM      6  C   UNL     1       9.114   1.879  21.869  0.00  0.00    +0.000 A 
ATOM      7  C   UNL     1       9.578   0.485  21.725  0.00  0.00    +0.000 A 
ENDBRANCH   1   2
BRANCH   1   8
ATOM      8  C   UNL     1       9.757  -2.483  24.046  0.00  0.00    +0.000 C 
BRANCH   8   9
ATOM      9  N   UNL     1       8.566  -3.091  24.601  0.00  0.00    +0.000 NA
BRANCH   9  11
ATOM     10  C   UNL     1       7.945  -5.310  26.175  0.00  0.00    +0.000 C 
ATOM     11  S   UNL     1       8.834  -4.712  24.743  0.00  0.00    +0.000 S 
ATOM     12  O   UNL     1       8.287  -5.375  23.595  0.00  0.00    +0.000 OA
ATOM     13  O   UNL     1      10.232  -4.921  24.992  0.00  0.00    +0.000 OA
ENDBRANCH   9  11
ENDBRANCH   8   9
ENDBRANCH   1   8
TORSDOF 4
ENDMDL
MODEL 7
REMARK VINA RESULT:      -4.9      4.595      5.831
REMARK  Name = 
REMARK  4 active torsions:
REMARK  status: ('A' for Active; 'I' for Inactive)
REMARK    1  A    between atoms: S_2  and  N_5
REMARK    2  A    between atoms: N_5  and  C_6
REMARK    3  A    between atoms: C_6  and  C_7
REMARK    4  A    between atoms: C_7  and  C_8
REMARK                            x       y       z     vdW  Elec       q    Type
REMARK                         _______ _______ _______ _____ _____    ______ ____
ROOT
ATOM      1  C   UNL     1      10.360  -0.539  22.889  0.00  0.00    +0.000 C 
ENDROOT
BRANCH   1   2
ATOM      2  C   UNL     1       9.851   0.189  21.685  0.00  0.00    +0.000 A 
ATOM      3  C   UNL     1       9.509   1.741  22.114  0.00  0.00    +0.000 A 
ATOM      4  C   UNL     1       8.106   2.057  21.698  0.00  0.00    +0.000 A 
ATOM      5  C   UNL     1       6.979   1.395  21.029  0.00  0.00    +0.000 A 
ATOM      6  C   UNL     1       7.303  -0.101  20.638  0.00  0.00    +0.000 A 
ATOM      7  C   UNL     1       8.707  -0.407  20.978  0.00  0.00    +0.000 A 
ENDBRANCH   1   2
BRANCH   1   8
ATOM      8  C   UNL     1       9.391  -1.669  23.242  0.00  0.00    +0.000 C 
BRANCH   8   9
ATOM      9  N   UNL     1      10.159  -2.781  23.764  0.00  0.00    +0.000 NA
BRANCH   9  11
ATOM     10  C   UNL     1       8.478  -3.029  25.977  0.00  0.00    +0.000 C 
ATOM     11  S   UNL     1       9.118  -3.822  24.507  0.00  0.00    +0.000 S 
ATOM     12  O   UNL     1       8.005  -4.064  23.636  0.00  0.00    +0.000 OA
ATOM     13  O   UNL     1       9.856  -4.976  24.932  0.00  0.00    +0.000 OA
ENDBRANCH   9  11
ENDBRANCH   8   9
ENDBRANCH   1   8
TORSDOF 4
ENDMDL
MODEL 8
REMARK VINA RESULT:      -4.9      3.165      3.590
REMARK  Name = 
REMARK  4 active torsions:
REMARK  status: ('A' for Active; 'I' for Inactive)
REMARK    1  A    between atoms: S_2  and  N_5
REMARK    2  A    between atoms: N_5  and  C_6
REMARK    3  A    between atoms: C_6  and  C_7
REMARK    4  A    between atoms: C_7  and  C_8
REMARK                            x       y       z     vdW  Elec       q    Type
REMARK                         _______ _______ _______ _____ _____    ______ ____
ROOT
ATOM      1  C   UNL     1       8.410  -0.436  20.983  0.00  0.00    +0.000 C 
ENDROOT
BRANCH   1   2
ATOM      2  C   UNL     1       9.736  -0.056  21.563  0.00  0.00    +0.000 A 
ATOM      3  C   UNL     1      10.045  -1.031  22.853  0.00  0.00    +0.000 A 
ATOM      4  C   UNL     1      10.372  -0.174  24.037  0.00  0.00    +0.000 A 
ATOM      5  C   UNL     1      10.497   1.252  24.364  0.00  0.00    +0.000 A 
ATOM      6  C   UNL     1      10.180   2.185  23.129  0.00  0.00    +0.000 A 
ATOM      7  C   UNL     1       9.924   1.355  21.936  0.00  0.00    +0.000 A 
ENDBRANCH   1   2
BRANCH   1   8
ATOM      8  C   UNL     1       7.589  -1.174  22.042  0.00  0.00    +0.000 C 
BRANCH   8   9
ATOM      9  N   UNL     1       6.438  -1.768  21.394  0.00  0.00    +0.000 NA
BRANCH   9  11
ATOM     10  C   UNL     1       5.173  -3.358  23.305  0.00  0.00    +0.000 C 
ATOM     11  S   UNL     1       6.300  -3.326  21.917  0.00  0.00    +0.000 S 
ATOM     12  O   UNL     1       5.712  -4.114  20.874  0.00  0.00    +0.000 OA
ATOM     13  O   UNL     1       7.580  -3.759  22.398  0.00  0.00    +0.000 OA
ENDBRANCH   9  11
ENDBRANCH   8   9
ENDBRANCH   1   8
TORSDOF 4
ENDMDL
MODEL 9
REMARK VINA RESULT:      -4.8      4.206      5.107
REMARK  Name = 
REMARK  4 active torsions:
REMARK  status: ('A' for Active; 'I' for Inactive)
REMARK    1  A    between atoms: S_2  and  N_5
REMARK    2  A    between atoms: N_5  and  C_6
REMARK    3  A    between atoms: C_6  and  C_7
REMARK    4  A    between atoms: C_7  and  C_8
REMARK                            x       y       z     vdW  Elec       q    Type
REMARK                         _______ _______ _______ _____ _____    ______ ____
ROOT
ATOM      1  C   UNL     1       9.840  -2.349  23.718  0.00  0.00    +0.000 C 
ENDROOT
BRANCH   1   2
ATOM      2  C   UNL     1      10.309  -1.347  22.710  0.00  0.00    +0.000 A 
ATOM      3  C   UNL     1      10.615   0.073  23.482  0.00  0.00    +0.000 A 
ATOM      4  C   UNL     1       9.868   1.170  22.788  0.00  0.00    +0.000 A 
ATOM      5  C   UNL     1       8.965   1.334  21.642  0.00  0.00    +0.000 A 
ATOM      6  C   UNL     1       8.657  -0.035  20.915  0.00  0.00    +0.000 A 
ATOM      7  C   UNL     1       9.442  -1.116  21.544  0.00  0.00    +0.000 A 
ENDBRANCH   1   2
BRANCH   1   8
ATOM      8  C   UNL     1       8.465  -2.876  23.302  0.00  0.00    +0.000 C 
BRANCH   8   9
ATOM      9  N   UNL     1       8.416  -4.294  23.592  0.00  0.00    +0.000 NA
BRANCH   9  11
ATOM     10  C   UNL     1       5.889  -5.406  24.002  0.00  0.00    +0.000 C 
ATOM     11  S   UNL     1       7.123  -4.937  22.795  0.00  0.00    +0.000 S 
ATOM     12  O   UNL     1       6.541  -3.925  21.963  0.00  0.00    +0.000 OA
ATOM     13  O   UNL     1       7.549  -6.137  22.133  0.00  0.00    +0.000 OA
ENDBRANCH   9  11
ENDBRANCH   8   9
ENDBRANCH   1   8
TORSDOF 4
ENDMDL
