MODEL 1
REMARK VINA RESULT:      -6.0      0.000      0.000
REMARK  Name = 
REMARK  2 active torsions:
REMARK  status: ('A' for Active; 'I' for Inactive)
REMARK    1  A    between atoms: C_5  and  S_8
REMARK    2  A    between atoms: S_8  and  N_11
REMARK                            x       y       z     vdW  Elec       q    Type
REMARK                         _______ _______ _______ _____ _____    ______ ____
ROOT
ATOM      1  S   UNL     1       8.298   1.506  22.201  0.00  0.00    +0.000 S 
ATOM      2  O   UNL     1       9.673   1.077  22.325  0.00  0.00    +0.000 OA
ATOM      3  O   UNL     1       8.211   2.978  21.981  0.00  0.00    +0.000 OA
ENDROOT
BRANCH   1   8
ATOM      4  N   UNL     1       6.240   1.450  17.198  0.00  0.00    +0.000 NA
ATOM      5  C   UNL     1       6.032   0.617  18.239  0.00  0.00    +0.000 A 
ATOM      6  C   UNL     1       5.385   1.542  19.444  0.00  0.00    +0.000 A 
ATOM      7  C   UNL     1       6.216   1.431  20.660  0.00  0.00    +0.000 A 
ATOM      8  C   UNL     1       7.424   0.690  21.035  0.00  0.00    +0.000 A 
ATOM      9  C   UNL     1       8.125  -0.063  19.975  0.00  0.00    +0.000 A 
ATOM     10  C   UNL     1       7.223  -0.098  18.744  0.00  0.00    +0.000 A 
ENDBRANCH   1   8
BRANCH   1  11
ATOM     11  N   UNL     1       7.572   1.295  23.663  0.00  0.00    +0.000 NA
ATOM     12  C   UNL     1       7.682   0.126  24.199  0.00  0.00    +0.000 A 
ATOM     13  C   UNL     1       7.362  -1.129  23.205  0.00  0.00    +0.000 A 
ATOM     14  C   UNL     1       8.560  -2.007  23.057  0.00  0.00    +0.000 A 
ATOM     15  C   UNL     1       9.888  -2.031  23.745  0.00  0.00    +0.000 A 
ATOM     16  C   UNL     1       9.984  -0.748  24.665  0.00  0.00    +0.000 A 
ATOM     17  N   UNL     1       8.881  -0.059  24.730  0.00  0.00    +0.000 NA
ENDBRANCH   1  11
TORSDOF 2
ENDMDL
MODEL 2
REMARK VINA RESULT:      -5.9      3.444      4.718
REMARK  Name = 
REMARK  2 active torsions:
REMARK  status: ('A' for Active; 'I' for Inactive)
REMARK    1  A    between atoms: C_5  and  S_8
REMARK    2  A    between atoms: S_8  and  N_11
REMARK                            x       y       z     vdW  Elec       q    Type
REMARK                         _______ _______ _______ _____ _____    ______ ____
ROOT
ATOM      1  S   UNL     1       8.051  -1.392  24.343  0.00  0.00    +0.000 S 
ATOM      2  O   UNL     1       7.641  -0.009  24.239  0.00  0.00    +0.000 OA
ATOM      3  O   UNL     1       7.538  -2.013  25.597  0.00  0.00    +0.000 OA
ENDROOT
BRANCH   1   8
ATOM      4  N   UNL     1       4.979  -5.331  22.265  0.00  0.00    +0.000 NA
ATOM      5  C   UNL     1       6.067  -4.712  21.762  0.00  0.00    +0.000 A 
ATOM      6  C   UNL     1       7.301  -5.024  22.815  0.00  0.00    +0.000 A 
ATOM      7  C   UNL     1       7.886  -3.753  23.287  0.00  0.00    +0.000 A 
ATOM      8  C   UNL     1       7.649  -2.331  23.022  0.00  0.00    +0.000 A 
ATOM      9  C   UNL     1       6.486  -1.973  22.184  0.00  0.00    +0.000 A 
ATOM     10  C   UNL     1       5.944  -3.253  21.554  0.00  0.00    +0.000 A 
ENDBRANCH   1   8
BRANCH   1  11
ATOM     11  N   UNL     1       9.684  -1.418  24.545  0.00  0.00    +0.000 NA
ATOM     12  C   UNL     1      10.382  -0.750  23.691  0.00  0.00    +0.000 A 
ATOM     13  C   UNL     1       9.988  -0.993  22.125  0.00  0.00    +0.000 A 
ATOM     14  C   UNL     1       9.534   0.280  21.489  0.00  0.00    +0.000 A 
ATOM     15  C   UNL     1       9.529   1.699  21.960  0.00  0.00    +0.000 A 
ATOM     16  C   UNL     1       9.955   1.711  23.483  0.00  0.00    +0.000 A 
ATOM     17  N   UNL     1      10.340   0.551  23.933  0.00  0.00    +0.000 NA
ENDBRANCH   1  11
TORSDOF 2
ENDMDL
MODEL 3
REMARK VINA RESULT:      -5.9      3.770      5.326
REMARK  Name = 
REMARK  2 active torsions:
REMARK  status: ('A' for Active; 'I' for Inactive)
REMARK    1  A    between atoms: C_5  and  S_8
REMARK    2  A    between atoms: S_8  and  N_11
REMARK                            x       y       z     vdW  Elec       q    Type
REMARK                         _______ _______ _______ _____ _____    ______ ____
ROOT
ATOM      1  S   UNL     1       8.949  -2.390  24.656  0.00  0.00    +0.000 S 
ATOM      2  O   UNL     1       8.590  -2.312  26.055  0.00  0.00    +0.000 OA
ATOM      3  O   UNL     1       7.742  -2.552  23.798  0.00  0.00    +0.000 OA
ENDROOT
BRANCH   1   8
ATOM      4  N   UNL     1       9.155   2.530  22.413  0.00  0.00    +0.000 NA
ATOM      5  C   UNL     1      10.137   1.638  22.658  0.00  0.00    +0.000 A 
ATOM      6  C   UNL     1       9.761   0.289  21.783  0.00  0.00    +0.000 A 
ATOM      7  C   UNL     1       9.682  -0.882  22.680  0.00  0.00    +0.000 A 
ATOM      8  C   UNL     1       9.882  -1.115  24.113  0.00  0.00    +0.000 A 
ATOM      9  C   UNL     1      10.103   0.063  24.976  0.00  0.00    +0.000 A 
ATOM     10  C   UNL     1      10.341   1.272  24.076  0.00  0.00    +0.000 A 
ENDBRANCH   1   8
BRANCH   1  11
ATOM     11  N   UNL     1       9.773  -3.796  24.426  0.00  0.00    +0.000 NA
ATOM     12  C   UNL     1       9.148  -4.886  24.721  0.00  0.00    +0.000 A 
ATOM     13  C   UNL     1       8.392  -4.886  26.169  0.00  0.00    +0.000 A 
ATOM     14  C   UNL     1       6.921  -5.079  25.998  0.00  0.00    +0.000 A 
ATOM     15  C   UNL     1       6.077  -5.414  24.810  0.00  0.00    +0.000 A 
ATOM     16  C   UNL     1       7.001  -5.377  23.527  0.00  0.00    +0.000 A 
ATOM     17  N   UNL     1       8.265  -5.212  23.791  0.00  0.00    +0.000 NA
ENDBRANCH   1  11
TORSDOF 2
ENDMDL
MODEL 4
REMARK VINA RESULT:      -5.8      3.789      4.815
REMARK  Name = 
REMARK  2 active torsions:
REMARK  status: ('A' for Active; 'I' for Inactive)
REMARK    1  A    between atoms: C_5  and  S_8
REMARK    2  A    between atoms: S_8  and  N_11
REMARK                            x       y       z     vdW  Elec       q    Type
REMARK                         _______ _______ _______ _____ _____    ______ ____
ROOT
ATOM      1  S   UNL     1       9.361  -1.927  23.260  0.00  0.00    +0.000 S 
ATOM      2  O   UNL     1       8.860  -2.249  21.943  0.00  0.00    +0.000 OA
ATOM      3  O   UNL     1      10.173  -3.046  23.817  0.00  0.00    +0.000 OA
ENDROOT
BRANCH   1   8
ATOM      4  N   UNL     1       9.257   3.479  23.458  0.00  0.00    +0.000 NA
ATOM      5  C   UNL     1      10.288   2.630  23.271  0.00  0.00    +0.000 A 
ATOM      6  C   UNL     1       9.952   1.795  21.887  0.00  0.00    +0.000 A 
ATOM      7  C   UNL     1       9.958   0.345  22.165  0.00  0.00    +0.000 A 
ATOM      8  C   UNL     1      10.213  -0.492  23.341  0.00  0.00    +0.000 A 
ATOM      9  C   UNL     1      10.402   0.186  24.639  0.00  0.00    +0.000 A 
ATOM     10  C   UNL     1      10.554   1.682  24.374  0.00  0.00    +0.000 A 
ENDBRANCH   1   8
BRANCH   1  11
ATOM     11  N   UNL     1       8.073  -1.845  24.282  0.00  0.00    +0.000 NA
ATOM     12  C   UNL     1       7.140  -2.720  24.106  0.00  0.00    +0.000 A 
ATOM     13  C   UNL     1       6.645  -2.911  22.562  0.00  0.00    +0.000 A 
ATOM     14  C   UNL     1       6.888  -4.308  22.096  0.00  0.00    +0.000 A 
ATOM     15  C   UNL     1       7.334  -5.547  22.805  0.00  0.00    +0.000 A 
ATOM     16  C   UNL     1       7.748  -5.145  24.278  0.00  0.00    +0.000 A 
ATOM     17  N   UNL     1       7.485  -3.906  24.581  0.00  0.00    +0.000 NA
ENDBRANCH   1  11
TORSDOF 2
ENDMDL
MODEL 5
REMARK VINA RESULT:      -5.8      3.123      6.172
REMARK  Name = 
REMARK  2 active torsions:
REMARK  status: ('A' for Active; 'I' for Inactive)
REMARK    1  A    between atoms: C_5  and  S_8
REMARK    2  A    between atoms: S_8  and  N_11
REMARK                            x       y       z     vdW  Elec       q    Type
REMARK                         _______ _______ _______ _____ _____    ______ ____
ROOT
ATOM      1  S   UNL     1       8.100  -1.937  22.926  0.00  0.00    +0.000 S 
ATOM      2  O   UNL     1       7.025  -1.620  22.014  0.00  0.00    +0.000 OA
ATOM      3  O   UNL     1       8.202  -0.921  24.012  0.00  0.00    +0.000 OA
ENDROOT
BRANCH   1   8
ATOM      4  N   UNL     1       7.669  -5.061  27.323  0.00  0.00    +0.000 NA
ATOM      5  C   UNL     1       7.968  -5.382  26.047  0.00  0.00    +0.000 A 
ATOM      6  C   UNL     1       9.357  -4.568  25.681  0.00  0.00    +0.000 A 
ATOM      7  C   UNL     1       9.141  -3.724  24.489  0.00  0.00    +0.000 A 
ATOM      8  C   UNL     1       8.024  -3.475  23.573  0.00  0.00    +0.000 A 
ATOM      9  C   UNL     1       6.716  -4.075  23.906  0.00  0.00    +0.000 A 
ATOM     10  C   UNL     1       6.928  -5.073  25.041  0.00  0.00    +0.000 A 
ENDBRANCH   1   8
BRANCH   1  11
ATOM     11  N   UNL     1       9.519  -1.766  22.110  0.00  0.00    +0.000 NA
ATOM     12  C   UNL     1       9.688  -0.658  21.471  0.00  0.00    +0.000 A 
ATOM     13  C   UNL     1       8.427  -0.187  20.547  0.00  0.00    +0.000 A 
ATOM     14  C   UNL     1       7.897   1.132  21.006  0.00  0.00    +0.000 A 
ATOM     15  C   UNL     1       8.389   2.125  22.010  0.00  0.00    +0.000 A 
ATOM     16  C   UNL     1       9.614   1.481  22.775  0.00  0.00    +0.000 A 
ATOM     17  N   UNL     1      10.000   0.337  22.287  0.00  0.00    +0.000 NA
ENDBRANCH   1  11
TORSDOF 2
ENDMDL
MODEL 6
REMARK VINA RESULT:      -5.7      3.502      4.759
REMARK  Name = 
REMARK  2 active torsions:
REMARK  status: ('A' for Active; 'I' for Inactive)
REMARK    1  A    between atoms: C_5  and  S_8
REMARK    2  A    between atoms: S_8  and  N_11
REMARK                            x       y       z     vdW  Elec       q    Type
REMARK                         _______ _______ _______ _____ _____    ______ ____
ROOT
ATOM      1  S   UNL     1       9.316  -2.400  24.287  0.00  0.00    +0.000 S 
ATOM      2  O   UNL     1      10.113  -3.607  24.256  0.00  0.00    +0.000 OA
ATOM      3  O   UNL     1       8.967  -2.021  25.685  0.00  0.00    +0.000 OA
ENDROOT
BRANCH   1   8
ATOM      4  N   UNL     1       8.643   2.430  21.944  0.00  0.00    +0.000 NA
ATOM      5  C   UNL     1       9.705   1.598  21.944  0.00  0.00    +0.000 A 
ATOM      6  C   UNL     1       9.191   0.198  21.234  0.00  0.00    +0.000 A 
ATOM      7  C   UNL     1       9.417  -0.938  22.149  0.00  0.00    +0.000 A 
ATOM      8  C   UNL     1       9.999  -1.104  23.485  0.00  0.00    +0.000 A 
ATOM      9  C   UNL     1      10.370   0.116  24.229  0.00  0.00    +0.000 A 
ATOM     10  C   UNL     1      10.294   1.299  23.267  0.00  0.00    +0.000 A 
ENDBRANCH   1   8
BRANCH   1  11
ATOM     11  N   UNL     1       7.856  -2.744  23.609  0.00  0.00    +0.000 NA
ATOM     12  C   UNL     1       7.193  -3.721  24.130  0.00  0.00    +0.000 A 
ATOM     13  C   UNL     1       8.050  -5.087  24.387  0.00  0.00    +0.000 A 
ATOM     14  C   UNL     1       8.075  -5.433  25.839  0.00  0.00    +0.000 A 
ATOM     15  C   UNL     1       7.359  -4.869  27.025  0.00  0.00    +0.000 A 
ATOM     16  C   UNL     1       6.583  -3.572  26.556  0.00  0.00    +0.000 A 
ATOM     17  N   UNL     1       6.619  -3.371  25.270  0.00  0.00    +0.000 NA
ENDBRANCH   1  11
TORSDOF 2
ENDMDL
MODEL 7
REMARK VINA RESULT:      -5.7      2.319      2.937
REMARK  Name = 
REMARK  2 active torsions:
REMARK  status: ('A' for Active; 'I' for Inactive)
REMARK    1  A    between atoms: C_5  and  S_8
REMARK    2  A    between atoms: S_8  and  N_11
REMARK                            x       y       z     vdW  Elec       q    Type
REMARK                         _______ _______ _______ _____ _____    ______ ____
ROOT
ATOM      1  S   UNL     1       7.260  -1.216  22.485  0.00  0.00    +0.000 S 
ATOM      2  O   UNL     1       7.353  -0.693  23.830  0.00  0.00    +0.000 OA
ATOM      3  O   UNL     1       6.173  -2.230  22.376  0.00  0.00    +0.000 OA
ENDROOT
BRANCH   1   8
ATOM      4  N   UNL     1       3.969   1.575  19.221  0.00  0.00    +0.000 NA
ATOM      5  C   UNL     1       5.315   1.491  19.242  0.00  0.00    +0.000 A 
ATOM      6  C   UNL     1       5.680  -0.097  18.972  0.00  0.00    +0.000 A 
ATOM      7  C   UNL     1       6.511  -0.613  20.078  0.00  0.00    +0.000 A 
ATOM      8  C   UNL     1       7.089  -0.049  21.302  0.00  0.00    +0.000 A 
ATOM      9  C   UNL     1       6.706   1.329  21.670  0.00  0.00    +0.000 A 
ATOM     10  C   UNL     1       5.973   1.950  20.484  0.00  0.00    +0.000 A 
ENDBRANCH   1   8
BRANCH   1  11
ATOM     11  N   UNL     1       8.625  -2.086  22.189  0.00  0.00    +0.000 NA
ATOM     12  C   UNL     1       9.748  -1.474  22.359  0.00  0.00    +0.000 A 
ATOM     13  C   UNL     1       9.845   0.007  21.678  0.00  0.00    +0.000 A 
ATOM     14  C   UNL     1      10.076   1.054  22.716  0.00  0.00    +0.000 A 
ATOM     15  C   UNL     1      10.380   0.978  24.179  0.00  0.00    +0.000 A 
ATOM     16  C   UNL     1      10.250  -0.533  24.627  0.00  0.00    +0.000 A 
ATOM     17  N   UNL     1      10.057  -1.362  23.641  0.00  0.00    +0.000 NA
ENDBRANCH   1  11
TORSDOF 2
ENDMDL
MODEL 8
REMARK VINA RESULT:      -5.5      3.146      5.023
REMARK  Name = 
REMARK  2 active torsions:
REMARK  status: ('A' for Active; 'I' for Inactive)
REMARK    1  A    between atoms: C_5  and  S_8
REMARK    2  A    between atoms: S_8  and  N_11
REMARK                            x       y       z     vdW  Elec       q    Type
REMARK                         _______ _______ _______ _____ _____    ______ ____
ROOT
ATOM      1  S   UNL     1       9.924  -0.898  22.889  0.00  0.00    +0.000 S 
ATOM      2  O   UNL     1      10.590  -0.106  23.899  0.00  0.00    +0.000 OA
ATOM      3  O   UNL     1      10.792  -2.014  22.420  0.00  0.00    +0.000 OA
ENDROOT
BRANCH   1   8
ATOM      4  N   UNL     1       6.853  -5.145  24.236  0.00  0.00    +0.000 NA
ATOM      5  C   UNL     1       6.510  -3.870  23.957  0.00  0.00    +0.000 A 
ATOM      6  C   UNL     1       6.993  -3.593  22.402  0.00  0.00    +0.000 A 
ATOM      7  C   UNL     1       7.899  -2.428  22.361  0.00  0.00    +0.000 A 
ATOM      8  C   UNL     1       8.426  -1.479  23.346  0.00  0.00    +0.000 A 
ATOM      9  C   UNL     1       8.133  -1.735  24.771  0.00  0.00    +0.000 A 
ATOM     10  C   UNL     1       7.080  -2.837  24.848  0.00  0.00    +0.000 A 
ENDBRANCH   1   8
BRANCH   1  11
ATOM     11  N   UNL     1       9.750   0.040  21.548  0.00  0.00    +0.000 NA
ATOM     12  C   UNL     1       9.246   1.215  21.726  0.00  0.00    +0.000 A 
ATOM     13  C   UNL     1       7.898   1.263  22.646  0.00  0.00    +0.000 A 
ATOM     14  C   UNL     1       8.119   2.090  23.869  0.00  0.00    +0.000 A 
ATOM     15  C   UNL     1       9.248   2.970  24.303  0.00  0.00    +0.000 A 
ATOM     16  C   UNL     1      10.435   2.788  23.274  0.00  0.00    +0.000 A 
ATOM     17  N   UNL     1      10.130   2.055  22.241  0.00  0.00    +0.000 NA
ENDBRANCH   1  11
TORSDOF 2
ENDMDL
MODEL 9
REMARK VINA RESULT:      -5.5      3.019      4.617
REMARK  Name = 
REMARK  2 active torsions:
REMARK  status: ('A' for Active; 'I' for Inactive)
REMARK    1  A    between atoms: C_5  and  S_8
REMARK    2  A    between atoms: S_8  and  N_11
REMARK                            x       y       z     vdW  Elec       q    Type
REMARK                         _______ _______ _______ _____ _____    ______ ____
ROOT
ATOM      1  S   UNL     1       9.501  -1.980  23.342  0.00  0.00    +0.000 S 
ATOM      2  O   UNL     1      10.122  -3.158  23.904  0.00  0.00    +0.000 OA
ATOM      3  O   UNL     1       9.995  -1.716  21.961  0.00  0.00    +0.000 OA
ENDROOT
BRANCH   1   8
ATOM      4  N   UNL     1       4.928  -4.771  22.581  0.00  0.00    +0.000 NA
ATOM      5  C   UNL     1       5.125  -3.451  22.784  0.00  0.00    +0.000 A 
ATOM      6  C   UNL     1       6.053  -2.926  21.523  0.00  0.00    +0.000 A 
ATOM      7  C   UNL     1       7.282  -2.290  22.040  0.00  0.00    +0.000 A 
ATOM      8  C   UNL     1       7.831  -2.003  23.368  0.00  0.00    +0.000 A 
ATOM      9  C   UNL     1       7.115  -2.549  24.539  0.00  0.00    +0.000 A 
ATOM     10  C   UNL     1       5.766  -3.082  24.064  0.00  0.00    +0.000 A 
ENDBRANCH   1   8
BRANCH   1  11
ATOM     11  N   UNL     1      10.034  -0.676  24.193  0.00  0.00    +0.000 NA
ATOM     12  C   UNL     1       9.734   0.486  23.718  0.00  0.00    +0.000 A 
ATOM     13  C   UNL     1      10.016   0.680  22.122  0.00  0.00    +0.000 A 
ATOM     14  C   UNL     1       8.749   0.983  21.392  0.00  0.00    +0.000 A 
ATOM     15  C   UNL     1       7.360   1.282  21.860  0.00  0.00    +0.000 A 
ATOM     16  C   UNL     1       7.310   1.052  23.424  0.00  0.00    +0.000 A 
ATOM     17  N   UNL     1       8.472   0.803  23.959  0.00  0.00    +0.000 NA
ENDBRANCH   1  11
TORSDOF 2
ENDMDL
