MODEL 1
REMARK VINA RESULT:      -4.7      0.000      0.000
REMARK  Name = 
REMARK  2 active torsions:
REMARK  status: ('A' for Active; 'I' for Inactive)
REMARK    1  A    between atoms: C_2  and  C_3
REMARK    2  A    between atoms: C_5  and  C_7
REMARK                            x       y       z     vdW  Elec       q    Type
REMARK                         _______ _______ _______ _____ _____    ______ ____
ROOT
ATOM      1  C   UNL     1       9.000   1.730  21.534  0.00  0.00    +0.000 C 
ATOM      2  C   UNL     1      10.101   1.052  22.376  0.00  0.00    +0.000 C 
ATOM      3  C   UNL     1      10.437   2.098  23.447  0.00  0.00    +0.000 C 
ATOM      4  C   UNL     1       9.137   2.927  23.663  0.00  0.00    +0.000 C 
ATOM      5  C   UNL     1       8.262   2.745  22.423  0.00  0.00    +0.000 C 
ENDROOT
BRANCH   2   6
ATOM      6  C   UNL     1       9.643  -0.199  23.034  0.00  0.00    +0.000 A 
ATOM      7  C   UNL     1       9.983  -1.515  22.607  0.00  0.00    +0.000 A 
ATOM      8  S   UNL     1       9.669  -2.628  23.963  0.00  0.00    +0.000 S 
ATOM      9  C   UNL     1       9.089  -1.372  25.094  0.00  0.00    +0.000 A 
ATOM     10  C   UNL     1       9.022  -0.148  24.343  0.00  0.00    +0.000 A 
ENDBRANCH   2   6
BRANCH   1  12
ATOM     11  O   UNL     1       8.262   0.155  20.011  0.00  0.00    +0.000 OA
ATOM     12  C   UNL     1       8.042   0.711  21.111  0.00  0.00    +0.000 C 
ATOM     13  N   UNL     1       6.772   0.727  21.555  0.00  0.00    +0.000 NA
ENDBRANCH   1  12
TORSDOF 2
ENDMDL
MODEL 2
REMARK VINA RESULT:      -4.7      2.427      3.202
REMARK  Name = 
REMARK  2 active torsions:
REMARK  status: ('A' for Active; 'I' for Inactive)
REMARK    1  A    between atoms: C_2  and  C_3
REMARK    2  A    between atoms: C_5  and  C_7
REMARK                            x       y       z     vdW  Elec       q    Type
REMARK                         _______ _______ _______ _____ _____    ______ ____
ROOT
ATOM      1  C   UNL     1      10.440  -0.681  23.007  0.00  0.00    +0.000 C 
ATOM      2  C   UNL     1      10.403   0.263  24.227  0.00  0.00    +0.000 C 
ATOM      3  C   UNL     1      10.458   1.665  23.607  0.00  0.00    +0.000 C 
ATOM      4  C   UNL     1       9.804   1.539  22.200  0.00  0.00    +0.000 C 
ATOM      5  C   UNL     1       9.855   0.066  21.796  0.00  0.00    +0.000 C 
ENDROOT
BRANCH   2   6
ATOM      6  C   UNL     1       9.161   0.128  25.031  0.00  0.00    +0.000 A 
ATOM      7  C   UNL     1       9.027  -0.688  26.192  0.00  0.00    +0.000 A 
ATOM      8  S   UNL     1       7.591  -0.129  27.088  0.00  0.00    +0.000 S 
ATOM      9  C   UNL     1       7.160   1.173  25.943  0.00  0.00    +0.000 A 
ATOM     10  C   UNL     1       8.058   1.047  24.827  0.00  0.00    +0.000 A 
ENDBRANCH   2   6
BRANCH   1  12
ATOM     11  O   UNL     1      10.160  -2.855  23.741  0.00  0.00    +0.000 OA
ATOM     12  C   UNL     1       9.591  -1.837  23.285  0.00  0.00    +0.000 C 
ATOM     13  N   UNL     1       8.429  -2.016  22.632  0.00  0.00    +0.000 NA
ENDBRANCH   1  12
TORSDOF 2
ENDMDL
MODEL 3
REMARK VINA RESULT:      -4.7      1.940      2.491
REMARK  Name = 
REMARK  2 active torsions:
REMARK  status: ('A' for Active; 'I' for Inactive)
REMARK    1  A    between atoms: C_2  and  C_3
REMARK    2  A    between atoms: C_5  and  C_7
REMARK                            x       y       z     vdW  Elec       q    Type
REMARK                         _______ _______ _______ _____ _____    ______ ____
ROOT
ATOM      1  C   UNL     1       9.390  -0.064  21.163  0.00  0.00    +0.000 C 
ATOM      2  C   UNL     1       9.261  -1.387  21.947  0.00  0.00    +0.000 C 
ATOM      3  C   UNL     1      10.261  -1.228  23.100  0.00  0.00    +0.000 C 
ATOM      4  C   UNL     1      10.351   0.300  23.383  0.00  0.00    +0.000 C 
ATOM      5  C   UNL     1       9.862   1.032  22.133  0.00  0.00    +0.000 C 
ENDROOT
BRANCH   2   6
ATOM      6  C   UNL     1       7.900  -1.607  22.500  0.00  0.00    +0.000 A 
ATOM      7  C   UNL     1       6.916  -2.462  21.926  0.00  0.00    +0.000 A 
ATOM      8  S   UNL     1       5.697  -2.811  23.179  0.00  0.00    +0.000 S 
ATOM      9  C   UNL     1       6.474  -1.836  24.460  0.00  0.00    +0.000 A 
ATOM     10  C   UNL     1       7.577  -1.155  23.840  0.00  0.00    +0.000 A 
ENDBRANCH   2   6
BRANCH   1  12
ATOM     11  O   UNL     1       7.808  -0.015  19.478  0.00  0.00    +0.000 OA
ATOM     12  C   UNL     1       8.070   0.310  20.659  0.00  0.00    +0.000 C 
ATOM     13  N   UNL     1       7.400   1.353  21.180  0.00  0.00    +0.000 NA
ENDBRANCH   1  12
TORSDOF 2
ENDMDL
MODEL 4
REMARK VINA RESULT:      -4.6      2.702      3.794
REMARK  Name = 
REMARK  2 active torsions:
REMARK  status: ('A' for Active; 'I' for Inactive)
REMARK    1  A    between atoms: C_2  and  C_3
REMARK    2  A    between atoms: C_5  and  C_7
REMARK                            x       y       z     vdW  Elec       q    Type
REMARK                         _______ _______ _______ _____ _____    ______ ____
ROOT
ATOM      1  C   UNL     1       9.701  -0.830  24.426  0.00  0.00    +0.000 C 
ATOM      2  C   UNL     1       8.367  -0.151  24.051  0.00  0.00    +0.000 C 
ATOM      3  C   UNL     1       8.608   1.329  24.371  0.00  0.00    +0.000 C 
ATOM      4  C   UNL     1      10.135   1.566  24.192  0.00  0.00    +0.000 C 
ATOM      5  C   UNL     1      10.829   0.207  24.294  0.00  0.00    +0.000 C 
ENDROOT
BRANCH   2   6
ATOM      6  C   UNL     1       8.024  -0.296  22.613  0.00  0.00    +0.000 A 
ATOM      7  C   UNL     1       7.137  -1.277  22.081  0.00  0.00    +0.000 A 
ATOM      8  S   UNL     1       6.635  -0.737  20.458  0.00  0.00    +0.000 S 
ATOM      9  C   UNL     1       7.588   0.775  20.470  0.00  0.00    +0.000 A 
ATOM     10  C   UNL     1       8.378   0.748  21.671  0.00  0.00    +0.000 A 
ENDBRANCH   2   6
BRANCH   1  12
ATOM     11  O   UNL     1       9.785  -3.077  23.891  0.00  0.00    +0.000 OA
ATOM     12  C   UNL     1       9.959  -1.910  23.475  0.00  0.00    +0.000 C 
ATOM     13  N   UNL     1      10.807  -1.737  22.445  0.00  0.00    +0.000 NA
ENDBRANCH   1  12
TORSDOF 2
ENDMDL
MODEL 5
REMARK VINA RESULT:      -4.6      2.619      3.909
REMARK  Name = 
REMARK  2 active torsions:
REMARK  status: ('A' for Active; 'I' for Inactive)
REMARK    1  A    between atoms: C_2  and  C_3
REMARK    2  A    between atoms: C_5  and  C_7
REMARK                            x       y       z     vdW  Elec       q    Type
REMARK                         _______ _______ _______ _____ _____    ______ ____
ROOT
ATOM      1  C   UNL     1      10.231   0.017  24.746  0.00  0.00    +0.000 C 
ATOM      2  C   UNL     1      10.050  -0.942  23.551  0.00  0.00    +0.000 C 
ATOM      3  C   UNL     1       9.546  -2.239  24.197  0.00  0.00    +0.000 C 
ATOM      4  C   UNL     1       8.783  -1.811  25.484  0.00  0.00    +0.000 C 
ATOM      5  C   UNL     1       9.268  -0.412  25.866  0.00  0.00    +0.000 C 
ENDROOT
BRANCH   2   6
ATOM      6  C   UNL     1       9.050  -0.461  22.564  0.00  0.00    +0.000 A 
ATOM      7  C   UNL     1       9.358   0.278  21.386  0.00  0.00    +0.000 A 
ATOM      8  S   UNL     1       7.960   0.162  20.286  0.00  0.00    +0.000 S 
ATOM      9  C   UNL     1       6.965  -0.854  21.369  0.00  0.00    +0.000 A 
ATOM     10  C   UNL     1       7.687  -0.956  22.608  0.00  0.00    +0.000 A 
ENDBRANCH   2   6
BRANCH   1  12
ATOM     11  O   UNL     1      10.798   2.100  23.919  0.00  0.00    +0.000 OA
ATOM     12  C   UNL     1       9.866   1.367  24.321  0.00  0.00    +0.000 C 
ATOM     13  N   UNL     1       8.764   1.970  24.802  0.00  0.00    +0.000 NA
ENDBRANCH   1  12
TORSDOF 2
ENDMDL
MODEL 6
REMARK VINA RESULT:      -4.6      2.581      3.992
REMARK  Name = 
REMARK  2 active torsions:
REMARK  status: ('A' for Active; 'I' for Inactive)
REMARK    1  A    between atoms: C_2  and  C_3
REMARK    2  A    between atoms: C_5  and  C_7
REMARK                            x       y       z     vdW  Elec       q    Type
REMARK                         _______ _______ _______ _____ _____    ______ ____
ROOT
ATOM      1  C   UNL     1       8.704  -1.495  21.876  0.00  0.00    +0.000 C 
ATOM      2  C   UNL     1       9.152  -0.160  21.243  0.00  0.00    +0.000 C 
ATOM      3  C   UNL     1       8.111   0.090  20.145  0.00  0.00    +0.000 C 
ATOM      4  C   UNL     1       6.801  -0.599  20.627  0.00  0.00    +0.000 C 
ATOM      5  C   UNL     1       7.187  -1.645  21.673  0.00  0.00    +0.000 C 
ENDROOT
BRANCH   2   6
ATOM      6  C   UNL     1       9.139   0.974  22.203  0.00  0.00    +0.000 A 
ATOM      7  C   UNL     1      10.270   1.431  22.938  0.00  0.00    +0.000 A 
ATOM      8  S   UNL     1       9.916   3.080  23.517  0.00  0.00    +0.000 S 
ATOM      9  C   UNL     1       8.282   3.173  22.799  0.00  0.00    +0.000 A 
ATOM     10  C   UNL     1       8.003   1.873  22.253  0.00  0.00    +0.000 A 
ENDBRANCH   2   6
BRANCH   1  12
ATOM     11  O   UNL     1      10.045  -1.950  23.704  0.00  0.00    +0.000 OA
ATOM     12  C   UNL     1       8.969  -1.442  23.313  0.00  0.00    +0.000 C 
ATOM     13  N   UNL     1       7.962  -1.360  24.200  0.00  0.00    +0.000 NA
ENDBRANCH   1  12
TORSDOF 2
ENDMDL
MODEL 7
REMARK VINA RESULT:      -4.4      3.079      4.104
REMARK  Name = 
REMARK  2 active torsions:
REMARK  status: ('A' for Active; 'I' for Inactive)
REMARK    1  A    between atoms: C_2  and  C_3
REMARK    2  A    between atoms: C_5  and  C_7
REMARK                            x       y       z     vdW  Elec       q    Type
REMARK                         _______ _______ _______ _____ _____    ______ ____
ROOT
ATOM      1  C   UNL     1       9.909   1.575  21.988  0.00  0.00    +0.000 C 
ATOM      2  C   UNL     1       8.456   2.049  21.776  0.00  0.00    +0.000 C 
ATOM      3  C   UNL     1       7.850   0.973  20.866  0.00  0.00    +0.000 C 
ATOM      4  C   UNL     1       8.621  -0.341  21.181  0.00  0.00    +0.000 C 
ATOM      5  C   UNL     1       9.951   0.046  21.829  0.00  0.00    +0.000 C 
ENDROOT
BRANCH   2   6
ATOM      6  C   UNL     1       7.677   2.124  23.039  0.00  0.00    +0.000 A 
ATOM      7  C   UNL     1       7.407   3.323  23.760  0.00  0.00    +0.000 A 
ATOM      8  S   UNL     1       6.041   3.003  24.859  0.00  0.00    +0.000 S 
ATOM      9  C   UNL     1       5.822   1.295  24.380  0.00  0.00    +0.000 A 
ATOM     10  C   UNL     1       6.903   0.982  23.486  0.00  0.00    +0.000 A 
ENDBRANCH   2   6
BRANCH   1  12
ATOM     11  O   UNL     1      10.890   3.002  23.520  0.00  0.00    +0.000 OA
ATOM     12  C   UNL     1      10.313   1.904  23.354  0.00  0.00    +0.000 C 
ATOM     13  N   UNL     1      10.548   0.936  24.258  0.00  0.00    +0.000 NA
ENDBRANCH   1  12
TORSDOF 2
ENDMDL
MODEL 8
REMARK VINA RESULT:      -4.4      4.413      6.362
REMARK  Name = 
REMARK  2 active torsions:
REMARK  status: ('A' for Active; 'I' for Inactive)
REMARK    1  A    between atoms: C_2  and  C_3
REMARK    2  A    between atoms: C_5  and  C_7
REMARK                            x       y       z     vdW  Elec       q    Type
REMARK                         _______ _______ _______ _____ _____    ______ ____
ROOT
ATOM      1  C   UNL     1       7.528  -5.211  25.328  0.00  0.00    +0.000 C 
ATOM      2  C   UNL     1       8.215  -4.925  23.976  0.00  0.00    +0.000 C 
ATOM      3  C   UNL     1       7.195  -5.410  22.938  0.00  0.00    +0.000 C 
ATOM      4  C   UNL     1       5.796  -5.248  23.601  0.00  0.00    +0.000 C 
ATOM      5  C   UNL     1       6.005  -5.189  25.114  0.00  0.00    +0.000 C 
ENDROOT
BRANCH   2   6
ATOM      6  C   UNL     1       8.495  -3.483  23.758  0.00  0.00    +0.000 A 
ATOM      7  C   UNL     1       9.745  -2.848  24.010  0.00  0.00    +0.000 A 
ATOM      8  S   UNL     1       9.762  -1.302  23.123  0.00  0.00    +0.000 S 
ATOM      9  C   UNL     1       8.128  -1.482  22.420  0.00  0.00    +0.000 A 
ATOM     10  C   UNL     1       7.562  -2.666  23.006  0.00  0.00    +0.000 A 
ENDBRANCH   2   6
BRANCH   1  12
ATOM     11  O   UNL     1       8.874  -4.335  26.991  0.00  0.00    +0.000 OA
ATOM     12  C   UNL     1       7.874  -4.142  26.263  0.00  0.00    +0.000 C 
ATOM     13  N   UNL     1       6.941  -3.280  26.704  0.00  0.00    +0.000 NA
ENDBRANCH   1  12
TORSDOF 2
ENDMDL
MODEL 9
REMARK VINA RESULT:      -4.4      3.141      3.982
REMARK  Name = 
REMARK  2 active torsions:
REMARK  status: ('A' for Active; 'I' for Inactive)
REMARK    1  A    between atoms: C_2  and  C_3
REMARK    2  A    between atoms: C_5  and  C_7
REMARK                            x       y       z     vdW  Elec       q    Type
REMARK                         _______ _______ _______ _____ _____    ______ ____
ROOT
ATOM      1  C   UNL     1       8.984   0.066  22.944  0.00  0.00    +0.000 C 
ATOM      2  C   UNL     1       7.443   0.063  22.853  0.00  0.00    +0.000 C 
ATOM      3  C   UNL     1       7.161   0.538  21.422  0.00  0.00    +0.000 C 
ATOM      4  C   UNL     1       8.388   0.097  20.572  0.00  0.00    +0.000 C 
ATOM      5  C   UNL     1       9.556  -0.136  21.531  0.00  0.00    +0.000 C 
ENDROOT
BRANCH   2   6
ATOM      6  C   UNL     1       6.850  -1.284  23.052  0.00  0.00    +0.000 A 
ATOM      7  C   UNL     1       6.237  -1.734  24.256  0.00  0.00    +0.000 A 
ATOM      8  S   UNL     1       5.232  -3.153  23.861  0.00  0.00    +0.000 S 
ATOM      9  C   UNL     1       5.616  -3.162  22.115  0.00  0.00    +0.000 A 
ATOM     10  C   UNL     1       6.620  -2.154  21.915  0.00  0.00    +0.000 A 
ENDBRANCH   2   6
BRANCH   1  12
ATOM     11  O   UNL     1       9.558  -0.833  24.995  0.00  0.00    +0.000 OA
ATOM     12  C   UNL     1       9.404  -1.061  23.774  0.00  0.00    +0.000 C 
ATOM     13  N   UNL     1      10.083  -2.095  23.244  0.00  0.00    +0.000 NA
ENDBRANCH   1  12
TORSDOF 2
ENDMDL
