MODEL 1
REMARK VINA RESULT:      -5.6      0.000      0.000
REMARK  Name = 
REMARK  3 active torsions:
REMARK  status: ('A' for Active; 'I' for Inactive)
REMARK    1  A    between atoms: N_2  and  C_3
REMARK    2  A    between atoms: C_3  and  C_4
REMARK    3  A    between atoms: N_12  and  C_13
REMARK                            x       y       z     vdW  Elec       q    Type
REMARK                         _______ _______ _______ _____ _____    ______ ____
ROOT
ATOM      1  C   UNL     1       8.223  -2.221  24.034  0.00  0.00    +0.000 C 
ATOM      2  N   UNL     1       8.661  -1.181  23.117  0.00  0.00    +0.000 N 
ATOM      3  C   UNL     1       9.963  -0.991  22.888  0.00  0.00    +0.000 C 
ATOM      4  O   UNL     1      10.660  -1.756  22.287  0.00  0.00    +0.000 OA
ATOM      5  N   UNL     1      10.426   0.046  23.594  0.00  0.00    +0.000 NA
ENDROOT
BRANCH   5   6
ATOM      6  C   UNL     1       9.738   1.257  23.197  0.00  0.00    +0.000 C 
ATOM      7  C   UNL     1      10.607   2.446  23.493  0.00  0.00    +0.000 C 
ATOM      8  C   UNL     1       9.460   2.105  24.400  0.00  0.00    +0.000 C 
ENDBRANCH   5   6
BRANCH   2   9
ATOM      9  C   UNL     1       7.668  -0.371  22.433  0.00  0.00    +0.000 C 
BRANCH   9  10
ATOM     10  C   UNL     1       7.477  -0.881  21.040  0.00  0.00    +0.000 A 
ATOM     11  C   UNL     1       7.646   0.238  19.961  0.00  0.00    +0.000 A 
ATOM     12  C   UNL     1       6.535  -0.146  19.043  0.00  0.00    +0.000 A 
ATOM     13  C   UNL     1       5.915   0.838  18.121  0.00  0.00    +0.000 C 
ATOM     14  O   UNL     1       5.809  -1.174  19.617  0.00  0.00    +0.000 OA
ATOM     15  N   UNL     1       6.343  -1.446  20.802  0.00  0.00    +0.000 NA
ENDBRANCH   9  10
ENDBRANCH   2   9
TORSDOF 3
ENDMDL
MODEL 2
REMARK VINA RESULT:      -5.2      2.541      4.600
REMARK  Name = 
REMARK  3 active torsions:
REMARK  status: ('A' for Active; 'I' for Inactive)
REMARK    1  A    between atoms: N_2  and  C_3
REMARK    2  A    between atoms: C_3  and  C_4
REMARK    3  A    between atoms: N_12  and  C_13
REMARK                            x       y       z     vdW  Elec       q    Type
REMARK                         _______ _______ _______ _____ _____    ______ ____
ROOT
ATOM      1  C   UNL     1       6.723   0.049  23.408  0.00  0.00    +0.000 C 
ATOM      2  N   UNL     1       7.357   0.000  22.100  0.00  0.00    +0.000 N 
ATOM      3  C   UNL     1       7.690   1.131  21.471  0.00  0.00    +0.000 C 
ATOM      4  O   UNL     1       8.568   1.865  21.823  0.00  0.00    +0.000 OA
ATOM      5  N   UNL     1       6.786   1.442  20.536  0.00  0.00    +0.000 NA
ENDROOT
BRANCH   5   6
ATOM      6  C   UNL     1       6.731   0.393  19.539  0.00  0.00    +0.000 C 
ATOM      7  C   UNL     1       6.400   0.993  18.201  0.00  0.00    +0.000 C 
ATOM      8  C   UNL     1       5.341   0.281  18.991  0.00  0.00    +0.000 C 
ENDBRANCH   5   6
BRANCH   2   9
ATOM      9  C   UNL     1       7.649  -1.289  21.498  0.00  0.00    +0.000 C 
BRANCH   9  10
ATOM     10  C   UNL     1       6.711  -2.321  22.040  0.00  0.00    +0.000 A 
ATOM     11  C   UNL     1       7.453  -3.601  22.545  0.00  0.00    +0.000 A 
ATOM     12  C   UNL     1       6.505  -4.639  22.045  0.00  0.00    +0.000 A 
ATOM     13  C   UNL     1       6.942  -6.036  21.802  0.00  0.00    +0.000 C 
ATOM     14  O   UNL     1       5.534  -4.028  21.272  0.00  0.00    +0.000 OA
ATOM     15  N   UNL     1       5.797  -2.727  21.227  0.00  0.00    +0.000 NA
ENDBRANCH   9  10
ENDBRANCH   2   9
TORSDOF 3
ENDMDL
MODEL 3
REMARK VINA RESULT:      -5.1      2.503      4.240
REMARK  Name = 
REMARK  3 active torsions:
REMARK  status: ('A' for Active; 'I' for Inactive)
REMARK    1  A    between atoms: N_2  and  C_3
REMARK    2  A    between atoms: C_3  and  C_4
REMARK    3  A    between atoms: N_12  and  C_13
REMARK                            x       y       z     vdW  Elec       q    Type
REMARK                         _______ _______ _______ _____ _____    ______ ____
ROOT
ATOM      1  C   UNL     1       9.599  -0.477  24.658  0.00  0.00    +0.000 C 
ATOM      2  N   UNL     1       9.085  -1.113  23.456  0.00  0.00    +0.000 N 
ATOM      3  C   UNL     1       9.825  -1.147  22.344  0.00  0.00    +0.000 C 
ATOM      4  O   UNL     1      10.819  -1.801  22.216  0.00  0.00    +0.000 OA
ATOM      5  N   UNL     1       9.436  -0.201  21.483  0.00  0.00    +0.000 NA
ENDROOT
BRANCH   5   6
ATOM      6  C   UNL     1       8.060  -0.429  21.093  0.00  0.00    +0.000 C 
ATOM      7  C   UNL     1       7.862   0.025  19.674  0.00  0.00    +0.000 C 
ATOM      8  C   UNL     1       7.385   0.878  20.813  0.00  0.00    +0.000 C 
ENDBRANCH   5   6
BRANCH   2   9
ATOM      9  C   UNL     1       7.773  -1.735  23.486  0.00  0.00    +0.000 C 
BRANCH   9  10
ATOM     10  C   UNL     1       7.924  -3.220  23.588  0.00  0.00    +0.000 A 
ATOM     11  C   UNL     1       7.361  -3.968  22.335  0.00  0.00    +0.000 A 
ATOM     12  C   UNL     1       6.712  -5.124  23.019  0.00  0.00    +0.000 A 
ATOM     13  C   UNL     1       5.611  -5.885  22.379  0.00  0.00    +0.000 C 
ATOM     14  O   UNL     1       6.774  -4.931  24.388  0.00  0.00    +0.000 OA
ATOM     15  N   UNL     1       7.373  -3.768  24.616  0.00  0.00    +0.000 NA
ENDBRANCH   9  10
ENDBRANCH   2   9
TORSDOF 3
ENDMDL
MODEL 4
REMARK VINA RESULT:      -4.9      2.531      3.699
REMARK  Name = 
REMARK  3 active torsions:
REMARK  status: ('A' for Active; 'I' for Inactive)
REMARK    1  A    between atoms: N_2  and  C_3
REMARK    2  A    between atoms: C_3  and  C_4
REMARK    3  A    between atoms: N_12  and  C_13
REMARK                            x       y       z     vdW  Elec       q    Type
REMARK                         _______ _______ _______ _____ _____    ______ ____
ROOT
ATOM      1  C   UNL     1       7.066   1.005  20.834  0.00  0.00    +0.000 C 
ATOM      2  N   UNL     1       7.417   0.185  21.983  0.00  0.00    +0.000 N 
ATOM      3  C   UNL     1       7.246   0.655  23.222  0.00  0.00    +0.000 C 
ATOM      4  O   UNL     1       6.179   0.840  23.731  0.00  0.00    +0.000 OA
ATOM      5  N   UNL     1       8.404   1.089  23.731  0.00  0.00    +0.000 NA
ENDROOT
BRANCH   5   6
ATOM      6  C   UNL     1       9.346  -0.008  23.812  0.00  0.00    +0.000 C 
ATOM      7  C   UNL     1      10.020   0.011  25.155  0.00  0.00    +0.000 C 
ATOM      8  C   UNL     1      10.740   0.526  23.942  0.00  0.00    +0.000 C 
ENDBRANCH   5   6
BRANCH   2   9
ATOM      9  C   UNL     1       7.926  -1.159  21.769  0.00  0.00    +0.000 C 
BRANCH   9  10
ATOM     10  C   UNL     1       6.876  -2.158  22.140  0.00  0.00    +0.000 A 
ATOM     11  C   UNL     1       7.481  -3.539  22.556  0.00  0.00    +0.000 A 
ATOM     12  C   UNL     1       6.497  -4.441  21.890  0.00  0.00    +0.000 A 
ATOM     13  C   UNL     1       6.844  -5.838  21.532  0.00  0.00    +0.000 C 
ATOM     14  O   UNL     1       5.632  -3.679  21.125  0.00  0.00    +0.000 OA
ATOM     15  N   UNL     1       5.995  -2.406  21.233  0.00  0.00    +0.000 NA
ENDBRANCH   9  10
ENDBRANCH   2   9
TORSDOF 3
ENDMDL
MODEL 5
REMARK VINA RESULT:      -4.9      2.814      4.643
REMARK  Name = 
REMARK  3 active torsions:
REMARK  status: ('A' for Active; 'I' for Inactive)
REMARK    1  A    between atoms: N_2  and  C_3
REMARK    2  A    between atoms: C_3  and  C_4
REMARK    3  A    between atoms: N_12  and  C_13
REMARK                            x       y       z     vdW  Elec       q    Type
REMARK                         _______ _______ _______ _____ _____    ______ ____
ROOT
ATOM      1  C   UNL     1       5.198  -3.512  22.820  0.00  0.00    +0.000 C 
ATOM      2  N   UNL     1       6.643  -3.540  22.974  0.00  0.00    +0.000 N 
ATOM      3  C   UNL     1       7.320  -4.672  22.756  0.00  0.00    +0.000 C 
ATOM      4  O   UNL     1       7.466  -5.174  21.680  0.00  0.00    +0.000 OA
ATOM      5  N   UNL     1       7.625  -5.275  23.911  0.00  0.00    +0.000 NA
ENDROOT
BRANCH   5   6
ATOM      6  C   UNL     1       8.471  -4.411  24.707  0.00  0.00    +0.000 C 
ATOM      7  C   UNL     1       9.546  -5.232  25.362  0.00  0.00    +0.000 C 
ATOM      8  C   UNL     1       8.356  -4.777  26.155  0.00  0.00    +0.000 C 
ENDBRANCH   5   6
BRANCH   2   9
ATOM      9  C   UNL     1       7.345  -2.321  23.336  0.00  0.00    +0.000 C 
BRANCH   9  10
ATOM     10  C   UNL     1       7.989  -1.732  22.121  0.00  0.00    +0.000 A 
ATOM     11  C   UNL     1       9.341  -1.016  22.445  0.00  0.00    +0.000 A 
ATOM     12  C   UNL     1       9.198   0.175  21.558  0.00  0.00    +0.000 A 
ATOM     13  C   UNL     1       9.942   1.431  21.821  0.00  0.00    +0.000 C 
ATOM     14  O   UNL     1       7.933   0.173  21.000  0.00  0.00    +0.000 OA
ATOM     15  N   UNL     1       7.275  -0.881  21.468  0.00  0.00    +0.000 NA
ENDBRANCH   9  10
ENDBRANCH   2   9
TORSDOF 3
ENDMDL
MODEL 6
REMARK VINA RESULT:      -4.9      2.752      4.545
REMARK  Name = 
REMARK  3 active torsions:
REMARK  status: ('A' for Active; 'I' for Inactive)
REMARK    1  A    between atoms: N_2  and  C_3
REMARK    2  A    between atoms: C_3  and  C_4
REMARK    3  A    between atoms: N_12  and  C_13
REMARK                            x       y       z     vdW  Elec       q    Type
REMARK                         _______ _______ _______ _____ _____    ______ ____
ROOT
ATOM      1  C   UNL     1       9.668  -2.641  24.192  0.00  0.00    +0.000 C 
ATOM      2  N   UNL     1       8.434  -2.721  23.426  0.00  0.00    +0.000 N 
ATOM      3  C   UNL     1       7.291  -3.064  24.027  0.00  0.00    +0.000 C 
ATOM      4  O   UNL     1       6.710  -2.375  24.814  0.00  0.00    +0.000 OA
ATOM      5  N   UNL     1       7.000  -4.350  23.800  0.00  0.00    +0.000 NA
ENDROOT
BRANCH   5   6
ATOM      6  C   UNL     1       6.825  -4.570  22.380  0.00  0.00    +0.000 C 
ATOM      7  C   UNL     1       5.799  -5.647  22.165  0.00  0.00    +0.000 C 
ATOM      8  C   UNL     1       7.261  -5.958  22.021  0.00  0.00    +0.000 C 
ENDBRANCH   5   6
BRANCH   2   9
ATOM      9  C   UNL     1       8.453  -2.396  22.010  0.00  0.00    +0.000 C 
BRANCH   9  10
ATOM     10  C   UNL     1       7.927  -1.010  21.807  0.00  0.00    +0.000 A 
ATOM     11  C   UNL     1       6.735  -0.963  20.796  0.00  0.00    +0.000 A 
ATOM     12  C   UNL     1       7.096   0.284  20.060  0.00  0.00    +0.000 A 
ATOM     13  C   UNL     1       6.602   0.543  18.685  0.00  0.00    +0.000 C 
ATOM     14  O   UNL     1       8.336   0.719  20.490  0.00  0.00    +0.000 OA
ATOM     15  N   UNL     1       8.786  -0.141  21.396  0.00  0.00    +0.000 NA
ENDBRANCH   9  10
ENDBRANCH   2   9
TORSDOF 3
ENDMDL
MODEL 7
REMARK VINA RESULT:      -4.8      1.975      2.155
REMARK  Name = 
REMARK  3 active torsions:
REMARK  status: ('A' for Active; 'I' for Inactive)
REMARK    1  A    between atoms: N_2  and  C_3
REMARK    2  A    between atoms: C_3  and  C_4
REMARK    3  A    between atoms: N_12  and  C_13
REMARK                            x       y       z     vdW  Elec       q    Type
REMARK                         _______ _______ _______ _____ _____    ______ ____
ROOT
ATOM      1  C   UNL     1       8.490  -0.610  23.551  0.00  0.00    +0.000 C 
ATOM      2  N   UNL     1       9.232   0.549  23.082  0.00  0.00    +0.000 N 
ATOM      3  C   UNL     1      10.135   1.134  23.874  0.00  0.00    +0.000 C 
ATOM      4  O   UNL     1      11.181   0.642  24.184  0.00  0.00    +0.000 OA
ATOM      5  N   UNL     1       9.630   2.235  24.442  0.00  0.00    +0.000 NA
ENDROOT
BRANCH   5   6
ATOM      6  C   UNL     1       9.267   3.193  23.419  0.00  0.00    +0.000 C 
ATOM      7  C   UNL     1       9.599   4.580  23.894  0.00  0.00    +0.000 C 
ATOM      8  C   UNL     1       8.180   4.092  23.923  0.00  0.00    +0.000 C 
ENDBRANCH   5   6
BRANCH   2   9
ATOM      9  C   UNL     1       9.002   1.045  21.737  0.00  0.00    +0.000 C 
BRANCH   9  10
ATOM     10  C   UNL     1       7.618   0.686  21.298  0.00  0.00    +0.000 A 
ATOM     11  C   UNL     1       7.579   0.109  19.846  0.00  0.00    +0.000 A 
ATOM     12  C   UNL     1       6.340   0.780  19.356  0.00  0.00    +0.000 A 
ATOM     13  C   UNL     1       6.094   0.992  17.908  0.00  0.00    +0.000 C 
ATOM     14  O   UNL     1       5.903   1.677  20.314  0.00  0.00    +0.000 OA
ATOM     15  N   UNL     1       6.755   1.643  21.332  0.00  0.00    +0.000 NA
ENDBRANCH   9  10
ENDBRANCH   2   9
TORSDOF 3
ENDMDL
MODEL 8
REMARK VINA RESULT:      -4.7      3.138      5.568
REMARK  Name = 
REMARK  3 active torsions:
REMARK  status: ('A' for Active; 'I' for Inactive)
REMARK    1  A    between atoms: N_2  and  C_3
REMARK    2  A    between atoms: C_3  and  C_4
REMARK    3  A    between atoms: N_12  and  C_13
REMARK                            x       y       z     vdW  Elec       q    Type
REMARK                         _______ _______ _______ _____ _____    ______ ____
ROOT
ATOM      1  C   UNL     1       8.946  -4.456  26.390  0.00  0.00    +0.000 C 
ATOM      2  N   UNL     1       8.338  -3.938  25.175  0.00  0.00    +0.000 N 
ATOM      3  C   UNL     1       7.023  -4.065  24.974  0.00  0.00    +0.000 C 
ATOM      4  O   UNL     1       6.187  -3.475  25.594  0.00  0.00    +0.000 OA
ATOM      5  N   UNL     1       6.763  -5.084  24.148  0.00  0.00    +0.000 NA
ENDROOT
BRANCH   5   6
ATOM      6  C   UNL     1       7.375  -4.840  22.858  0.00  0.00    +0.000 C 
ATOM      7  C   UNL     1       6.313  -4.832  21.795  0.00  0.00    +0.000 C 
ATOM      8  C   UNL     1       7.193  -6.035  21.973  0.00  0.00    +0.000 C 
ENDBRANCH   5   6
BRANCH   2   9
ATOM      9  C   UNL     1       9.170  -3.258  24.197  0.00  0.00    +0.000 C 
BRANCH   9  10
ATOM     10  C   UNL     1       8.922  -1.785  24.265  0.00  0.00    +0.000 A 
ATOM     11  C   UNL     1       8.410  -1.199  22.908  0.00  0.00    +0.000 A 
ATOM     12  C   UNL     1       9.182   0.077  22.893  0.00  0.00    +0.000 A 
ATOM     13  C   UNL     1       9.470   0.794  21.627  0.00  0.00    +0.000 C 
ATOM     14  O   UNL     1      10.065   0.084  23.959  0.00  0.00    +0.000 OA
ATOM     15  N   UNL     1       9.932  -1.064  24.614  0.00  0.00    +0.000 NA
ENDBRANCH   9  10
ENDBRANCH   2   9
TORSDOF 3
ENDMDL
MODEL 9
REMARK VINA RESULT:      -4.6      2.303      4.934
REMARK  Name = 
REMARK  3 active torsions:
REMARK  status: ('A' for Active; 'I' for Inactive)
REMARK    1  A    between atoms: N_2  and  C_3
REMARK    2  A    between atoms: C_3  and  C_4
REMARK    3  A    between atoms: N_12  and  C_13
REMARK                            x       y       z     vdW  Elec       q    Type
REMARK                         _______ _______ _______ _____ _____    ______ ____
ROOT
ATOM      1  C   UNL     1       7.929   0.121  23.880  0.00  0.00    +0.000 C 
ATOM      2  N   UNL     1       8.096  -0.483  22.568  0.00  0.00    +0.000 N 
ATOM      3  C   UNL     1       8.898   0.085  21.664  0.00  0.00    +0.000 C 
ATOM      4  O   UNL     1      10.091   0.126  21.751  0.00  0.00    +0.000 OA
ATOM      5  N   UNL     1       8.189   0.782  20.769  0.00  0.00    +0.000 NA
ENDROOT
BRANCH   5   6
ATOM      6  C   UNL     1       7.293  -0.103  20.055  0.00  0.00    +0.000 C 
ATOM      7  C   UNL     1       7.284   0.264  18.598  0.00  0.00    +0.000 C 
ATOM      8  C   UNL     1       6.148   0.678  19.488  0.00  0.00    +0.000 C 
ENDBRANCH   5   6
BRANCH   2   9
ATOM      9  C   UNL     1       7.406  -1.725  22.262  0.00  0.00    +0.000 C 
BRANCH   9  10
ATOM     10  C   UNL     1       8.297  -2.885  22.576  0.00  0.00    +0.000 A 
ATOM     11  C   UNL     1       7.532  -4.058  23.272  0.00  0.00    +0.000 A 
ATOM     12  C   UNL     1       8.563  -4.451  24.276  0.00  0.00    +0.000 A 
ATOM     13  C   UNL     1       8.197  -5.171  25.521  0.00  0.00    +0.000 C 
ATOM     14  O   UNL     1       9.606  -3.544  24.231  0.00  0.00    +0.000 OA
ATOM     15  N   UNL     1       9.315  -2.622  23.321  0.00  0.00    +0.000 NA
ENDBRANCH   9  10
ENDBRANCH   2   9
TORSDOF 3
ENDMDL
