MODEL 1
REMARK VINA RESULT:      -4.9      0.000      0.000
REMARK  Name = 
REMARK  2 active torsions:
REMARK  status: ('A' for Active; 'I' for Inactive)
REMARK    1  A    between atoms: C_2  and  C_3
REMARK    2  A    between atoms: C_3  and  C_4
REMARK                            x       y       z     vdW  Elec       q    Type
REMARK                         _______ _______ _______ _____ _____    ______ ____
ROOT
ATOM      1  C   UNL     1       8.250   0.613  21.523  0.00  0.00    +0.000 C 
ATOM      2  C   UNL     1       7.596   1.971  21.333  0.00  0.00    +0.000 C 
ATOM      3  C   UNL     1       6.486   2.111  22.400  0.00  0.00    +0.000 C 
ATOM      4  C   UNL     1       6.680   0.941  23.391  0.00  0.00    +0.000 C 
ATOM      5  C   UNL     1       7.476  -0.140  22.630  0.00  0.00    +0.000 C 
ENDROOT
BRANCH   1   6
ATOM      6  C   UNL     1       9.670   0.787  22.027  0.00  0.00    +0.000 A 
ATOM      7  N   UNL     1      10.157   1.910  22.053  0.00  0.00    +0.000 NA
ATOM      8  C   UNL     1      10.460   2.632  23.223  0.00  0.00    +0.000 A 
ATOM      9  C   UNL     1      10.585   1.525  24.220  0.00  0.00    +0.000 A 
ATOM     10  C   UNL     1      10.733   0.159  23.992  0.00  0.00    +0.000 A 
ATOM     11  C   UNL     1      10.174  -0.467  22.749  0.00  0.00    +0.000 A 
ENDBRANCH   1   6
BRANCH   1  13
ATOM     12  O   UNL     1       7.493   0.495  19.291  0.00  0.00    +0.000 OA
ATOM     13  C   UNL     1       8.235  -0.197  20.261  0.00  0.00    +0.000 C 
ENDBRANCH   1  13
TORSDOF 2
ENDMDL
MODEL 2
REMARK VINA RESULT:      -4.8      2.593      3.750
REMARK  Name = 
REMARK  2 active torsions:
REMARK  status: ('A' for Active; 'I' for Inactive)
REMARK    1  A    between atoms: C_2  and  C_3
REMARK    2  A    between atoms: C_3  and  C_4
REMARK                            x       y       z     vdW  Elec       q    Type
REMARK                         _______ _______ _______ _____ _____    ______ ____
ROOT
ATOM      1  C   UNL     1       8.859  -1.711  22.956  0.00  0.00    +0.000 C 
ATOM      2  C   UNL     1       7.933  -2.747  22.341  0.00  0.00    +0.000 C 
ATOM      3  C   UNL     1       6.535  -2.562  22.974  0.00  0.00    +0.000 C 
ATOM      4  C   UNL     1       6.582  -1.232  23.761  0.00  0.00    +0.000 C 
ATOM      5  C   UNL     1       8.072  -0.958  24.054  0.00  0.00    +0.000 C 
ENDROOT
BRANCH   1   6
ATOM      6  C   UNL     1       9.248  -0.680  21.915  0.00  0.00    +0.000 A 
ATOM      7  N   UNL     1       8.689  -0.694  20.827  0.00  0.00    +0.000 NA
ATOM      8  C   UNL     1       7.793   0.290  20.366  0.00  0.00    +0.000 A 
ATOM      9  C   UNL     1       8.194   1.459  21.207  0.00  0.00    +0.000 A 
ATOM     10  C   UNL     1       9.354   1.638  21.955  0.00  0.00    +0.000 A 
ATOM     11  C   UNL     1      10.080   0.454  22.523  0.00  0.00    +0.000 A 
ENDBRANCH   1   6
BRANCH   1  13
ATOM     12  O   UNL     1       9.703  -3.526  24.205  0.00  0.00    +0.000 OA
ATOM     13  C   UNL     1      10.080  -2.340  23.557  0.00  0.00    +0.000 C 
ENDBRANCH   1  13
TORSDOF 2
ENDMDL
MODEL 3
REMARK VINA RESULT:      -4.8      1.507      2.487
REMARK  Name = 
REMARK  2 active torsions:
REMARK  status: ('A' for Active; 'I' for Inactive)
REMARK    1  A    between atoms: C_2  and  C_3
REMARK    2  A    between atoms: C_3  and  C_4
REMARK                            x       y       z     vdW  Elec       q    Type
REMARK                         _______ _______ _______ _____ _____    ______ ____
ROOT
ATOM      1  C   UNL     1       8.025   0.231  21.606  0.00  0.00    +0.000 C 
ATOM      2  C   UNL     1       7.099  -0.713  22.353  0.00  0.00    +0.000 C 
ATOM      3  C   UNL     1       7.856  -2.045  22.564  0.00  0.00    +0.000 C 
ATOM      4  C   UNL     1       9.329  -1.778  22.177  0.00  0.00    +0.000 C 
ATOM      5  C   UNL     1       9.313  -0.546  21.248  0.00  0.00    +0.000 C 
ENDROOT
BRANCH   1   6
ATOM      6  C   UNL     1       8.443   1.373  22.511  0.00  0.00    +0.000 A 
ATOM      7  N   UNL     1       7.831   1.557  23.555  0.00  0.00    +0.000 NA
ATOM      8  C   UNL     1       8.353   1.346  24.845  0.00  0.00    +0.000 A 
ATOM      9  C   UNL     1       9.822   1.444  24.581  0.00  0.00    +0.000 A 
ATOM     10  C   UNL     1      10.473   1.964  23.466  0.00  0.00    +0.000 A 
ATOM     11  C   UNL     1       9.813   1.935  22.120  0.00  0.00    +0.000 A 
ENDBRANCH   1   6
BRANCH   1  13
ATOM     12  O   UNL     1       7.874   0.018  19.260  0.00  0.00    +0.000 OA
ATOM     13  C   UNL     1       7.393   0.757  20.351  0.00  0.00    +0.000 C 
ENDBRANCH   1  13
TORSDOF 2
ENDMDL
MODEL 4
REMARK VINA RESULT:      -4.8      1.903      3.807
REMARK  Name = 
REMARK  2 active torsions:
REMARK  status: ('A' for Active; 'I' for Inactive)
REMARK    1  A    between atoms: C_2  and  C_3
REMARK    2  A    between atoms: C_3  and  C_4
REMARK                            x       y       z     vdW  Elec       q    Type
REMARK                         _______ _______ _______ _____ _____    ______ ____
ROOT
ATOM      1  C   UNL     1       9.306   0.183  22.498  0.00  0.00    +0.000 C 
ATOM      2  C   UNL     1       9.693  -0.028  23.951  0.00  0.00    +0.000 C 
ATOM      3  C   UNL     1      10.506   1.206  24.405  0.00  0.00    +0.000 C 
ATOM      4  C   UNL     1      10.356   2.265  23.289  0.00  0.00    +0.000 C 
ATOM      5  C   UNL     1       9.973   1.490  22.010  0.00  0.00    +0.000 C 
ENDROOT
BRANCH   1   6
ATOM      6  C   UNL     1       7.808   0.390  22.384  0.00  0.00    +0.000 A 
ATOM      7  N   UNL     1       7.125   0.353  23.398  0.00  0.00    +0.000 NA
ATOM      8  C   UNL     1       6.470   1.459  23.973  0.00  0.00    +0.000 A 
ATOM      9  C   UNL     1       6.360   2.372  22.794  0.00  0.00    +0.000 A 
ATOM     10  C   UNL     1       6.517   2.073  21.443  0.00  0.00    +0.000 A 
ATOM     11  C   UNL     1       7.415   0.951  21.013  0.00  0.00    +0.000 A 
ENDBRANCH   1   6
BRANCH   1  13
ATOM     12  O   UNL     1      10.605  -1.783  22.373  0.00  0.00    +0.000 OA
ATOM     13  C   UNL     1       9.747  -0.958  21.630  0.00  0.00    +0.000 C 
ENDBRANCH   1  13
TORSDOF 2
ENDMDL
MODEL 5
REMARK VINA RESULT:      -4.7      2.185      4.003
REMARK  Name = 
REMARK  2 active torsions:
REMARK  status: ('A' for Active; 'I' for Inactive)
REMARK    1  A    between atoms: C_2  and  C_3
REMARK    2  A    between atoms: C_3  and  C_4
REMARK                            x       y       z     vdW  Elec       q    Type
REMARK                         _______ _______ _______ _____ _____    ______ ____
ROOT
ATOM      1  C   UNL     1       9.948   1.771  23.492  0.00  0.00    +0.000 C 
ATOM      2  C   UNL     1      10.831   0.691  24.094  0.00  0.00    +0.000 C 
ATOM      3  C   UNL     1      10.072   0.078  25.293  0.00  0.00    +0.000 C 
ATOM      4  C   UNL     1       8.625   0.618  25.218  0.00  0.00    +0.000 C 
ATOM      5  C   UNL     1       8.692   1.913  24.382  0.00  0.00    +0.000 C 
ENDROOT
BRANCH   1   6
ATOM      6  C   UNL     1       9.464   1.342  22.121  0.00  0.00    +0.000 A 
ATOM      7  N   UNL     1       9.854   0.277  21.660  0.00  0.00    +0.000 NA
ATOM      8  C   UNL     1       9.050  -0.862  21.466  0.00  0.00    +0.000 A 
ATOM      9  C   UNL     1       7.689  -0.245  21.398  0.00  0.00    +0.000 A 
ATOM     10  C   UNL     1       7.347   1.091  21.205  0.00  0.00    +0.000 A 
ATOM     11  C   UNL     1       8.273   2.183  21.650  0.00  0.00    +0.000 A 
ENDBRANCH   1   6
BRANCH   1  13
ATOM     12  O   UNL     1       9.850   4.072  24.007  0.00  0.00    +0.000 OA
ATOM     13  C   UNL     1      10.657   3.091  23.411  0.00  0.00    +0.000 C 
ENDBRANCH   1  13
TORSDOF 2
ENDMDL
MODEL 6
REMARK VINA RESULT:      -4.7      1.979      2.741
REMARK  Name = 
REMARK  2 active torsions:
REMARK  status: ('A' for Active; 'I' for Inactive)
REMARK    1  A    between atoms: C_2  and  C_3
REMARK    2  A    between atoms: C_3  and  C_4
REMARK                            x       y       z     vdW  Elec       q    Type
REMARK                         _______ _______ _______ _____ _____    ______ ____
ROOT
ATOM      1  C   UNL     1       9.156  -0.244  22.997  0.00  0.00    +0.000 C 
ATOM      2  C   UNL     1       9.601   0.145  21.597  0.00  0.00    +0.000 C 
ATOM      3  C   UNL     1       8.335   0.491  20.781  0.00  0.00    +0.000 C 
ATOM      4  C   UNL     1       7.168   0.567  21.792  0.00  0.00    +0.000 C 
ATOM      5  C   UNL     1       7.610  -0.255  23.021  0.00  0.00    +0.000 C 
ENDROOT
BRANCH   1   6
ATOM      6  C   UNL     1       9.600   0.807  23.994  0.00  0.00    +0.000 A 
ATOM      7  N   UNL     1      10.590   1.482  23.744  0.00  0.00    +0.000 NA
ATOM      8  C   UNL     1      10.575   2.859  23.447  0.00  0.00    +0.000 A 
ATOM      9  C   UNL     1       9.282   3.274  24.073  0.00  0.00    +0.000 A 
ATOM     10  C   UNL     1       8.503   2.587  25.001  0.00  0.00    +0.000 A 
ATOM     11  C   UNL     1       8.518   1.088  25.042  0.00  0.00    +0.000 A 
ENDBRANCH   1   6
BRANCH   1  13
ATOM     12  O   UNL     1      10.691  -1.967  22.501  0.00  0.00    +0.000 OA
ATOM     13  C   UNL     1       9.672  -1.596  23.391  0.00  0.00    +0.000 C 
ENDBRANCH   1  13
TORSDOF 2
ENDMDL
MODEL 7
REMARK VINA RESULT:      -4.6      1.746      2.918
REMARK  Name = 
REMARK  2 active torsions:
REMARK  status: ('A' for Active; 'I' for Inactive)
REMARK    1  A    between atoms: C_2  and  C_3
REMARK    2  A    between atoms: C_3  and  C_4
REMARK                            x       y       z     vdW  Elec       q    Type
REMARK                         _______ _______ _______ _____ _____    ______ ____
ROOT
ATOM      1  C   UNL     1       8.326   0.484  21.830  0.00  0.00    +0.000 C 
ATOM      2  C   UNL     1       9.668   1.172  21.652  0.00  0.00    +0.000 C 
ATOM      3  C   UNL     1       9.944   2.001  22.928  0.00  0.00    +0.000 C 
ATOM      4  C   UNL     1       8.882   1.573  23.967  0.00  0.00    +0.000 C 
ATOM      5  C   UNL     1       7.710   0.973  23.162  0.00  0.00    +0.000 C 
ENDROOT
BRANCH   1   6
ATOM      6  C   UNL     1       8.523  -1.013  21.964  0.00  0.00    +0.000 A 
ATOM      7  N   UNL     1       9.661  -1.458  22.027  0.00  0.00    +0.000 NA
ATOM      8  C   UNL     1      10.238  -2.044  23.171  0.00  0.00    +0.000 A 
ATOM      9  C   UNL     1       9.017  -2.462  23.926  0.00  0.00    +0.000 A 
ATOM     10  C   UNL     1       7.707  -2.581  23.468  0.00  0.00    +0.000 A 
ATOM     11  C   UNL     1       7.219  -1.726  22.336  0.00  0.00    +0.000 A 
ENDBRANCH   1   6
BRANCH   1  13
ATOM     12  O   UNL     1       7.898   0.230  19.523  0.00  0.00    +0.000 OA
ATOM     13  C   UNL     1       7.386   0.793  20.702  0.00  0.00    +0.000 C 
ENDBRANCH   1  13
TORSDOF 2
ENDMDL
MODEL 8
REMARK VINA RESULT:      -4.5      2.530      3.215
REMARK  Name = 
REMARK  2 active torsions:
REMARK  status: ('A' for Active; 'I' for Inactive)
REMARK    1  A    between atoms: C_2  and  C_3
REMARK    2  A    between atoms: C_3  and  C_4
REMARK                            x       y       z     vdW  Elec       q    Type
REMARK                         _______ _______ _______ _____ _____    ______ ____
ROOT
ATOM      1  C   UNL     1       6.970  -1.738  22.011  0.00  0.00    +0.000 C 
ATOM      2  C   UNL     1       7.200  -0.653  20.973  0.00  0.00    +0.000 C 
ATOM      3  C   UNL     1       7.054   0.714  21.682  0.00  0.00    +0.000 C 
ATOM      4  C   UNL     1       7.009   0.419  23.199  0.00  0.00    +0.000 C 
ATOM      5  C   UNL     1       6.566  -1.053  23.338  0.00  0.00    +0.000 C 
ENDROOT
BRANCH   1   6
ATOM      6  C   UNL     1       8.263  -2.481  22.281  0.00  0.00    +0.000 A 
ATOM      7  N   UNL     1       9.310  -2.032  21.836  0.00  0.00    +0.000 NA
ATOM      8  C   UNL     1      10.349  -1.482  22.612  0.00  0.00    +0.000 A 
ATOM      9  C   UNL     1      10.083  -2.118  23.939  0.00  0.00    +0.000 A 
ATOM     10  C   UNL     1       9.279  -3.216  24.234  0.00  0.00    +0.000 A 
ATOM     11  C   UNL     1       8.092  -3.539  23.377  0.00  0.00    +0.000 A 
ENDBRANCH   1   6
BRANCH   1  13
ATOM     12  O   UNL     1       5.567  -2.444  20.249  0.00  0.00    +0.000 OA
ATOM     13  C   UNL     1       5.891  -2.692  21.592  0.00  0.00    +0.000 C 
ENDBRANCH   1  13
TORSDOF 2
ENDMDL
MODEL 9
REMARK VINA RESULT:      -4.5      4.775      5.778
REMARK  Name = 
REMARK  2 active torsions:
REMARK  status: ('A' for Active; 'I' for Inactive)
REMARK    1  A    between atoms: C_2  and  C_3
REMARK    2  A    between atoms: C_3  and  C_4
REMARK                            x       y       z     vdW  Elec       q    Type
REMARK                         _______ _______ _______ _____ _____    ______ ____
ROOT
ATOM      1  C   UNL     1       7.472  -4.229  24.625  0.00  0.00    +0.000 C 
ATOM      2  C   UNL     1       7.843  -5.213  23.528  0.00  0.00    +0.000 C 
ATOM      3  C   UNL     1       7.100  -4.784  22.242  0.00  0.00    +0.000 C 
ATOM      4  C   UNL     1       6.510  -3.384  22.522  0.00  0.00    +0.000 C 
ATOM      5  C   UNL     1       6.411  -3.257  24.056  0.00  0.00    +0.000 C 
ENDROOT
BRANCH   1   6
ATOM      6  C   UNL     1       8.677  -3.388  24.997  0.00  0.00    +0.000 A 
ATOM      7  N   UNL     1       9.654  -3.392  24.261  0.00  0.00    +0.000 NA
ATOM      8  C   UNL     1      10.083  -2.300  23.481  0.00  0.00    +0.000 A 
ATOM      9  C   UNL     1       9.462  -1.158  24.220  0.00  0.00    +0.000 A 
ATOM     10  C   UNL     1       8.932  -1.138  25.507  0.00  0.00    +0.000 A 
ATOM     11  C   UNL     1       8.347  -2.383  26.106  0.00  0.00    +0.000 A 
ENDBRANCH   1   6
BRANCH   1  13
ATOM     12  O   UNL     1       7.876  -5.831  26.310  0.00  0.00    +0.000 OA
ATOM     13  C   UNL     1       6.919  -4.922  25.834  0.00  0.00    +0.000 C 
ENDBRANCH   1  13
TORSDOF 2
ENDMDL
