MODEL 1
REMARK VINA RESULT:      -6.5      0.000      0.000
REMARK  Name = 
REMARK  3 active torsions:
REMARK  status: ('A' for Active; 'I' for Inactive)
REMARK    1  A    between atoms: C_7  and  S_8
REMARK    2  A    between atoms: S_8  and  N_11
REMARK    3  A    between atoms: C_17  and  C_19
REMARK                            x       y       z     vdW  Elec       q    Type
REMARK                         _______ _______ _______ _____ _____    ______ ____
ROOT
ATOM      1  S   UNL     1       9.143  -1.133  22.636  0.00  0.00    +0.000 S 
ATOM      2  O   UNL     1       9.304  -0.422  23.862  0.00  0.00    +0.000 OA
ATOM      3  O   UNL     1      10.204  -2.008  22.252  0.00  0.00    +0.000 OA
ENDROOT
BRANCH   1   4
ATOM      4  N   UNL     1       7.721  -1.883  22.582  0.00  0.00    +0.000 NA
ATOM      5  C   UNL     1       6.750  -1.455  23.452  0.00  0.00    +0.000 C 
ATOM      6  C   UNL     1       6.692  -2.180  24.763  0.00  0.00    +0.000 C 
ATOM      7  N   UNL     1       7.504  -3.371  24.764  0.00  0.00    +0.000 N 
ATOM      8  C   UNL     1       7.784  -4.116  23.566  0.00  0.00    +0.000 C 
ATOM      9  C   UNL     1       7.780  -3.251  22.338  0.00  0.00    +0.000 C 
ATOM     10  C   UNL     1       8.000  -3.818  25.952  0.00  0.00    +0.000 C 
ATOM     11  O   UNL     1       8.835  -3.153  26.536  0.00  0.00    +0.000 OA
BRANCH  10  12
ATOM     12  C   UNL     1       7.845  -5.297  26.210  0.00  0.00    +0.000 C 
ATOM     13 CL   UNL     1       6.124  -5.713  26.395  0.00  0.00    +0.000 Cl
ENDBRANCH  10  12
ENDBRANCH   1   4
BRANCH   1  20
ATOM     14  F   UNL     1       8.227  -0.087  19.130  0.00  0.00    +0.000 F 
ATOM     15  C   UNL     1       7.924  -0.216  20.467  0.00  0.00    +0.000 A 
ATOM     16  C   UNL     1       6.756   1.004  20.432  0.00  0.00    +0.000 A 
ATOM     17  C   UNL     1       7.216   2.067  21.372  0.00  0.00    +0.000 A 
ATOM     18  C   UNL     1       8.400   2.431  22.155  0.00  0.00    +0.000 A 
ATOM     19  C   UNL     1       9.524   1.351  22.091  0.00  0.00    +0.000 A 
ATOM     20  C   UNL     1       9.049   0.153  21.302  0.00  0.00    +0.000 A 
ENDBRANCH   1  20
TORSDOF 3
ENDMDL
MODEL 2
REMARK VINA RESULT:      -6.4      2.026      2.513
REMARK  Name = 
REMARK  3 active torsions:
REMARK  status: ('A' for Active; 'I' for Inactive)
REMARK    1  A    between atoms: C_7  and  S_8
REMARK    2  A    between atoms: S_8  and  N_11
REMARK    3  A    between atoms: C_17  and  C_19
REMARK                            x       y       z     vdW  Elec       q    Type
REMARK                         _______ _______ _______ _____ _____    ______ ____
ROOT
ATOM      1  S   UNL     1       9.545  -1.182  23.193  0.00  0.00    +0.000 S 
ATOM      2  O   UNL     1      10.022  -1.754  24.409  0.00  0.00    +0.000 OA
ATOM      3  O   UNL     1      10.109  -1.681  21.979  0.00  0.00    +0.000 OA
ENDROOT
BRANCH   1   4
ATOM      4  N   UNL     1       7.937  -1.195  23.136  0.00  0.00    +0.000 NA
ATOM      5  C   UNL     1       7.270  -1.539  24.284  0.00  0.00    +0.000 C 
ATOM      6  C   UNL     1       6.931  -2.993  24.422  0.00  0.00    +0.000 C 
ATOM      7  N   UNL     1       7.143  -3.721  23.197  0.00  0.00    +0.000 N 
ATOM      8  C   UNL     1       7.043  -3.101  21.902  0.00  0.00    +0.000 C 
ATOM      9  C   UNL     1       7.389  -1.640  21.938  0.00  0.00    +0.000 C 
ATOM     10  C   UNL     1       7.420  -5.054  23.272  0.00  0.00    +0.000 C 
ATOM     11  O   UNL     1       8.474  -5.415  23.761  0.00  0.00    +0.000 OA
BRANCH  10  12
ATOM     12  C   UNL     1       6.642  -5.938  22.329  0.00  0.00    +0.000 C 
ATOM     13 CL   UNL     1       4.913  -5.919  22.753  0.00  0.00    +0.000 Cl
ENDBRANCH  10  12
ENDBRANCH   1   4
BRANCH   1  20
ATOM     14  F   UNL     1      10.547   2.020  21.470  0.00  0.00    +0.000 F 
ATOM     15  C   UNL     1       9.586   1.177  21.984  0.00  0.00    +0.000 A 
ATOM     16  C   UNL     1       8.458   2.417  22.199  0.00  0.00    +0.000 A 
ATOM     17  C   UNL     1       8.162   2.481  23.659  0.00  0.00    +0.000 A 
ATOM     18  C   UNL     1       8.654   1.931  24.925  0.00  0.00    +0.000 A 
ATOM     19  C   UNL     1       9.779   0.868  24.727  0.00  0.00    +0.000 A 
ATOM     20  C   UNL     1      10.001   0.615  23.253  0.00  0.00    +0.000 A 
ENDBRANCH   1  20
TORSDOF 3
ENDMDL
MODEL 3
REMARK VINA RESULT:      -6.3      2.476      3.408
REMARK  Name = 
REMARK  3 active torsions:
REMARK  status: ('A' for Active; 'I' for Inactive)
REMARK    1  A    between atoms: C_7  and  S_8
REMARK    2  A    between atoms: S_8  and  N_11
REMARK    3  A    between atoms: C_17  and  C_19
REMARK                            x       y       z     vdW  Elec       q    Type
REMARK                         _______ _______ _______ _____ _____    ______ ____
ROOT
ATOM      1  S   UNL     1       9.022  -1.951  23.134  0.00  0.00    +0.000 S 
ATOM      2  O   UNL     1      10.443  -2.032  23.042  0.00  0.00    +0.000 OA
ATOM      3  O   UNL     1       8.276  -2.321  21.973  0.00  0.00    +0.000 OA
ENDROOT
BRANCH   1   4
ATOM      4  N   UNL     1       8.479  -2.714  24.442  0.00  0.00    +0.000 NA
ATOM      5  C   UNL     1       8.994  -3.959  24.702  0.00  0.00    +0.000 C 
ATOM      6  C   UNL     1       8.219  -5.110  24.133  0.00  0.00    +0.000 C 
ATOM      7  N   UNL     1       6.929  -4.706  23.634  0.00  0.00    +0.000 N 
ATOM      8  C   UNL     1       6.213  -3.578  24.168  0.00  0.00    +0.000 C 
ATOM      9  C   UNL     1       7.130  -2.526  24.723  0.00  0.00    +0.000 C 
ATOM     10  C   UNL     1       6.359  -5.440  22.638  0.00  0.00    +0.000 C 
ATOM     11  O   UNL     1       6.872  -5.444  21.535  0.00  0.00    +0.000 OA
BRANCH  10  12
ATOM     12  C   UNL     1       4.905  -5.792  22.835  0.00  0.00    +0.000 C 
ATOM     13 CL   UNL     1       4.721  -6.893  24.222  0.00  0.00    +0.000 Cl
ENDBRANCH  10  12
ENDBRANCH   1   4
BRANCH   1  20
ATOM     14  F   UNL     1       9.139   1.130  25.307  0.00  0.00    +0.000 F 
ATOM     15  C   UNL     1       9.664   0.337  24.310  0.00  0.00    +0.000 A 
ATOM     16  C   UNL     1      10.514   1.610  23.595  0.00  0.00    +0.000 A 
ATOM     17  C   UNL     1       9.980   1.762  22.211  0.00  0.00    +0.000 A 
ATOM     18  C   UNL     1       8.879   1.272  21.378  0.00  0.00    +0.000 A 
ATOM     19  C   UNL     1       8.024   0.176  22.088  0.00  0.00    +0.000 A 
ATOM     20  C   UNL     1       8.625  -0.163  23.432  0.00  0.00    +0.000 A 
ENDBRANCH   1  20
TORSDOF 3
ENDMDL
MODEL 4
REMARK VINA RESULT:      -6.2      1.926      2.072
REMARK  Name = 
REMARK  3 active torsions:
REMARK  status: ('A' for Active; 'I' for Inactive)
REMARK    1  A    between atoms: C_7  and  S_8
REMARK    2  A    between atoms: S_8  and  N_11
REMARK    3  A    between atoms: C_17  and  C_19
REMARK                            x       y       z     vdW  Elec       q    Type
REMARK                         _______ _______ _______ _____ _____    ______ ____
ROOT
ATOM      1  S   UNL     1       7.765  -2.020  22.885  0.00  0.00    +0.000 S 
ATOM      2  O   UNL     1       6.910  -1.144  23.617  0.00  0.00    +0.000 OA
ATOM      3  O   UNL     1       8.931  -2.498  23.557  0.00  0.00    +0.000 OA
ENDROOT
BRANCH   1   4
ATOM      4  N   UNL     1       6.933  -3.232  22.230  0.00  0.00    +0.000 NA
ATOM      5  C   UNL     1       5.565  -3.124  22.223  0.00  0.00    +0.000 C 
ATOM      6  C   UNL     1       4.864  -3.736  23.399  0.00  0.00    +0.000 C 
ATOM      7  N   UNL     1       5.744  -4.554  24.194  0.00  0.00    +0.000 N 
ATOM      8  C   UNL     1       6.888  -5.225  23.637  0.00  0.00    +0.000 C 
ATOM      9  C   UNL     1       7.458  -4.500  22.451  0.00  0.00    +0.000 C 
ATOM     10  C   UNL     1       5.461  -4.717  25.517  0.00  0.00    +0.000 C 
ATOM     11  O   UNL     1       5.545  -3.761  26.265  0.00  0.00    +0.000 OA
BRANCH  10  12
ATOM     12  C   UNL     1       5.536  -6.133  26.033  0.00  0.00    +0.000 C 
ATOM     13 CL   UNL     1       4.252  -7.124  25.299  0.00  0.00    +0.000 Cl
ENDBRANCH  10  12
ENDBRANCH   1   4
BRANCH   1  20
ATOM     14  F   UNL     1       7.207  -0.360  19.544  0.00  0.00    +0.000 F 
ATOM     15  C   UNL     1       7.247  -0.316  20.920  0.00  0.00    +0.000 A 
ATOM     16  C   UNL     1       7.503   1.354  20.968  0.00  0.00    +0.000 A 
ATOM     17  C   UNL     1       8.820   1.568  21.635  0.00  0.00    +0.000 A 
ATOM     18  C   UNL     1       9.980   0.799  22.091  0.00  0.00    +0.000 A 
ATOM     19  C   UNL     1       9.785  -0.741  21.937  0.00  0.00    +0.000 A 
ATOM     20  C   UNL     1       8.390  -1.041  21.438  0.00  0.00    +0.000 A 
ENDBRANCH   1  20
TORSDOF 3
ENDMDL
MODEL 5
REMARK VINA RESULT:      -6.2      3.813      6.228
REMARK  Name = 
REMARK  3 active torsions:
REMARK  status: ('A' for Active; 'I' for Inactive)
REMARK    1  A    between atoms: C_7  and  S_8
REMARK    2  A    between atoms: S_8  and  N_11
REMARK    3  A    between atoms: C_17  and  C_19
REMARK                            x       y       z     vdW  Elec       q    Type
REMARK                         _______ _______ _______ _____ _____    ______ ____
ROOT
ATOM      1  S   UNL     1       7.592  -3.044  23.526  0.00  0.00    +0.000 S 
ATOM      2  O   UNL     1       6.389  -2.449  24.011  0.00  0.00    +0.000 OA
ATOM      3  O   UNL     1       7.808  -3.008  22.115  0.00  0.00    +0.000 OA
ENDROOT
BRANCH   1   4
ATOM      4  N   UNL     1       8.875  -2.497  24.326  0.00  0.00    +0.000 NA
ATOM      5  C   UNL     1       8.650  -1.589  25.329  0.00  0.00    +0.000 C 
ATOM      6  C   UNL     1       8.721  -0.147  24.924  0.00  0.00    +0.000 C 
ATOM      7  N   UNL     1       9.269   0.021  23.602  0.00  0.00    +0.000 N 
ATOM      8  C   UNL     1      10.202  -0.912  23.028  0.00  0.00    +0.000 C 
ATOM      9  C   UNL     1      10.018  -2.306  23.556  0.00  0.00    +0.000 C 
ATOM     10  C   UNL     1       8.909   1.122  22.884  0.00  0.00    +0.000 C 
ATOM     11  O   UNL     1       7.758   1.235  22.507  0.00  0.00    +0.000 OA
BRANCH  10  12
ATOM     12  C   UNL     1      10.038   1.862  22.210  0.00  0.00    +0.000 C 
ATOM     13 CL   UNL     1      10.876   2.908  23.383  0.00  0.00    +0.000 Cl
ENDBRANCH  10  12
ENDBRANCH   1   4
BRANCH   1  20
ATOM     14  F   UNL     1       7.349  -5.795  26.095  0.00  0.00    +0.000 F 
ATOM     15  C   UNL     1       6.762  -4.910  25.218  0.00  0.00    +0.000 A 
ATOM     16  C   UNL     1       5.353  -5.829  25.062  0.00  0.00    +0.000 A 
ATOM     17  C   UNL     1       5.248  -6.215  23.625  0.00  0.00    +0.000 A 
ATOM     18  C   UNL     1       6.046  -6.179  22.396  0.00  0.00    +0.000 A 
ATOM     19  C   UNL     1       7.401  -5.427  22.577  0.00  0.00    +0.000 A 
ATOM     20  C   UNL     1       7.492  -4.843  23.968  0.00  0.00    +0.000 A 
ENDBRANCH   1  20
TORSDOF 3
ENDMDL
MODEL 6
REMARK VINA RESULT:      -6.2      3.587      6.134
REMARK  Name = 
REMARK  3 active torsions:
REMARK  status: ('A' for Active; 'I' for Inactive)
REMARK    1  A    between atoms: C_7  and  S_8
REMARK    2  A    between atoms: S_8  and  N_11
REMARK    3  A    between atoms: C_17  and  C_19
REMARK                            x       y       z     vdW  Elec       q    Type
REMARK                         _______ _______ _______ _____ _____    ______ ____
ROOT
ATOM      1  S   UNL     1       8.750  -2.808  23.448  0.00  0.00    +0.000 S 
ATOM      2  O   UNL     1       8.152  -2.729  22.156  0.00  0.00    +0.000 OA
ATOM      3  O   UNL     1      10.177  -2.780  23.503  0.00  0.00    +0.000 OA
ENDROOT
BRANCH   1   4
ATOM      4  N   UNL     1       8.108  -1.728  24.453  0.00  0.00    +0.000 NA
ATOM      5  C   UNL     1       7.127  -0.911  23.954  0.00  0.00    +0.000 C 
ATOM      6  C   UNL     1       7.598   0.400  23.399  0.00  0.00    +0.000 C 
ATOM      7  N   UNL     1       8.974   0.669  23.730  0.00  0.00    +0.000 N 
ATOM      8  C   UNL     1       9.600   0.147  24.915  0.00  0.00    +0.000 C 
ATOM      9  C   UNL     1       8.997  -1.156  25.357  0.00  0.00    +0.000 C 
ATOM     10  C   UNL     1       9.698   1.471  22.899  0.00  0.00    +0.000 C 
ATOM     11  O   UNL     1       9.961   1.081  21.777  0.00  0.00    +0.000 OA
BRANCH  10  12
ATOM     12  C   UNL     1      10.513   2.546  23.574  0.00  0.00    +0.000 C 
ATOM     13 CL   UNL     1       9.448   3.832  24.190  0.00  0.00    +0.000 Cl
ENDBRANCH  10  12
ENDBRANCH   1   4
BRANCH   1  20
ATOM     14  F   UNL     1       9.572  -5.955  25.358  0.00  0.00    +0.000 F 
ATOM     15  C   UNL     1       9.093  -4.664  25.310  0.00  0.00    +0.000 A 
ATOM     16  C   UNL     1       8.166  -4.840  26.712  0.00  0.00    +0.000 A 
ATOM     17  C   UNL     1       6.744  -4.623  26.317  0.00  0.00    +0.000 A 
ATOM     18  C   UNL     1       5.930  -4.474  25.109  0.00  0.00    +0.000 A 
ATOM     19  C   UNL     1       6.785  -4.427  23.804  0.00  0.00    +0.000 A 
ATOM     20  C   UNL     1       8.257  -4.455  24.146  0.00  0.00    +0.000 A 
ENDBRANCH   1  20
TORSDOF 3
ENDMDL
MODEL 7
REMARK VINA RESULT:      -6.1      2.960      3.517
REMARK  Name = 
REMARK  3 active torsions:
REMARK  status: ('A' for Active; 'I' for Inactive)
REMARK    1  A    between atoms: C_7  and  S_8
REMARK    2  A    between atoms: S_8  and  N_11
REMARK    3  A    between atoms: C_17  and  C_19
REMARK                            x       y       z     vdW  Elec       q    Type
REMARK                         _______ _______ _______ _____ _____    ______ ____
ROOT
ATOM      1  S   UNL     1       7.176  -2.417  22.663  0.00  0.00    +0.000 S 
ATOM      2  O   UNL     1       6.096  -2.484  21.734  0.00  0.00    +0.000 OA
ATOM      3  O   UNL     1       6.968  -1.637  23.841  0.00  0.00    +0.000 OA
ENDROOT
BRANCH   1   4
ATOM      4  N   UNL     1       7.724  -3.885  23.026  0.00  0.00    +0.000 NA
ATOM      5  C   UNL     1       7.569  -4.865  22.079  0.00  0.00    +0.000 C 
ATOM      6  C   UNL     1       6.317  -5.682  22.194  0.00  0.00    +0.000 C 
ATOM      7  N   UNL     1       5.628  -5.453  23.439  0.00  0.00    +0.000 N 
ATOM      8  C   UNL     1       6.314  -5.055  24.639  0.00  0.00    +0.000 C 
ATOM      9  C   UNL     1       7.561  -4.268  24.353  0.00  0.00    +0.000 C 
ATOM     10  C   UNL     1       4.280  -5.650  23.481  0.00  0.00    +0.000 C 
ATOM     11  O   UNL     1       3.551  -4.908  22.850  0.00  0.00    +0.000 OA
BRANCH  10  12
ATOM     12  C   UNL     1       3.772  -6.443  24.660  0.00  0.00    +0.000 C 
ATOM     13 CL   UNL     1       2.605  -7.673  24.117  0.00  0.00    +0.000 Cl
ENDBRANCH  10  12
ENDBRANCH   1   4
BRANCH   1  20
ATOM     14  F   UNL     1       8.493  -0.360  19.788  0.00  0.00    +0.000 F 
ATOM     15  C   UNL     1       8.004  -0.464  21.072  0.00  0.00    +0.000 A 
ATOM     16  C   UNL     1       8.708   0.988  21.574  0.00  0.00    +0.000 A 
ATOM     17  C   UNL     1       9.659   0.647  22.672  0.00  0.00    +0.000 A 
ATOM     18  C   UNL     1      10.260  -0.528  23.306  0.00  0.00    +0.000 A 
ATOM     19  C   UNL     1       9.688  -1.872  22.755  0.00  0.00    +0.000 A 
ATOM     20  C   UNL     1       8.579  -1.598  21.766  0.00  0.00    +0.000 A 
ENDBRANCH   1  20
TORSDOF 3
ENDMDL
MODEL 8
REMARK VINA RESULT:      -6.0      2.261      3.010
REMARK  Name = 
REMARK  3 active torsions:
REMARK  status: ('A' for Active; 'I' for Inactive)
REMARK    1  A    between atoms: C_7  and  S_8
REMARK    2  A    between atoms: S_8  and  N_11
REMARK    3  A    between atoms: C_17  and  C_19
REMARK                            x       y       z     vdW  Elec       q    Type
REMARK                         _______ _______ _______ _____ _____    ______ ____
ROOT
ATOM      1  S   UNL     1       8.305  -1.269  24.406  0.00  0.00    +0.000 S 
ATOM      2  O   UNL     1       7.370  -1.771  23.453  0.00  0.00    +0.000 OA
ATOM      3  O   UNL     1       7.863  -0.202  25.246  0.00  0.00    +0.000 OA
ENDROOT
BRANCH   1   4
ATOM      4  N   UNL     1       8.952  -2.461  25.270  0.00  0.00    +0.000 NA
ATOM      5  C   UNL     1       9.499  -3.513  24.579  0.00  0.00    +0.000 C 
ATOM      6  C   UNL     1       8.577  -4.666  24.321  0.00  0.00    +0.000 C 
ATOM      7  N   UNL     1       7.353  -4.564  25.074  0.00  0.00    +0.000 N 
ATOM      8  C   UNL     1       7.277  -3.880  26.337  0.00  0.00    +0.000 C 
ATOM      9  C   UNL     1       8.283  -2.770  26.449  0.00  0.00    +0.000 C 
ATOM     10  C   UNL     1       6.234  -5.166  24.580  0.00  0.00    +0.000 C 
ATOM     11  O   UNL     1       5.733  -4.739  23.557  0.00  0.00    +0.000 OA
BRANCH  10  12
ATOM     12  C   UNL     1       5.439  -5.983  25.568  0.00  0.00    +0.000 C 
ATOM     13 CL   UNL     1       4.329  -7.079  24.711  0.00  0.00    +0.000 Cl
ENDBRANCH  10  12
ENDBRANCH   1   4
BRANCH   1  20
ATOM     14  F   UNL     1      10.080  -0.722  21.122  0.00  0.00    +0.000 F 
ATOM     15  C   UNL     1       9.198  -0.314  22.098  0.00  0.00    +0.000 A 
ATOM     16  C   UNL     1       9.336   1.320  21.693  0.00  0.00    +0.000 A 
ATOM     17  C   UNL     1       9.879   2.017  22.896  0.00  0.00    +0.000 A 
ATOM     18  C   UNL     1      10.455   1.702  24.205  0.00  0.00    +0.000 A 
ATOM     19  C   UNL     1      10.430   0.175  24.526  0.00  0.00    +0.000 A 
ATOM     20  C   UNL     1       9.719  -0.576  23.424  0.00  0.00    +0.000 A 
ENDBRANCH   1  20
TORSDOF 3
ENDMDL
MODEL 9
REMARK VINA RESULT:      -6.0      3.246      5.949
REMARK  Name = 
REMARK  3 active torsions:
REMARK  status: ('A' for Active; 'I' for Inactive)
REMARK    1  A    between atoms: C_7  and  S_8
REMARK    2  A    between atoms: S_8  and  N_11
REMARK    3  A    between atoms: C_17  and  C_19
REMARK                            x       y       z     vdW  Elec       q    Type
REMARK                         _______ _______ _______ _____ _____    ______ ____
ROOT
ATOM      1  S   UNL     1       9.375  -1.726  23.539  0.00  0.00    +0.000 S 
ATOM      2  O   UNL     1      10.425  -2.592  23.115  0.00  0.00    +0.000 OA
ATOM      3  O   UNL     1       9.694  -0.768  24.549  0.00  0.00    +0.000 OA
ENDROOT
BRANCH   1   4
ATOM      4  N   UNL     1       8.654  -1.027  22.282  0.00  0.00    +0.000 NA
ATOM      5  C   UNL     1       9.437  -0.266  21.451  0.00  0.00    +0.000 C 
ATOM      6  C   UNL     1       9.503   1.194  21.784  0.00  0.00    +0.000 C 
ATOM      7  N   UNL     1       8.520   1.574  22.766  0.00  0.00    +0.000 N 
ATOM      8  C   UNL     1       7.269   0.880  22.917  0.00  0.00    +0.000 C 
ATOM      9  C   UNL     1       7.364  -0.565  22.518  0.00  0.00    +0.000 C 
ATOM     10  C   UNL     1       8.778   2.651  23.561  0.00  0.00    +0.000 C 
ATOM     11  O   UNL     1       9.681   2.586  24.374  0.00  0.00    +0.000 OA
BRANCH  10  12
ATOM     12  C   UNL     1       7.648   3.639  23.712  0.00  0.00    +0.000 C 
ATOM     13 CL   UNL     1       7.286   4.404  22.146  0.00  0.00    +0.000 Cl
ENDBRANCH  10  12
ENDBRANCH   1   4
BRANCH   1  20
ATOM     14  F   UNL     1       6.586  -4.241  23.177  0.00  0.00    +0.000 F 
ATOM     15  C   UNL     1       7.915  -3.933  23.370  0.00  0.00    +0.000 A 
ATOM     16  C   UNL     1       8.257  -5.403  24.130  0.00  0.00    +0.000 A 
ATOM     17  C   UNL     1       8.718  -5.077  25.510  0.00  0.00    +0.000 A 
ATOM     18  C   UNL     1       8.804  -3.932  26.419  0.00  0.00    +0.000 A 
ATOM     19  C   UNL     1       8.376  -2.591  25.745  0.00  0.00    +0.000 A 
ATOM     20  C   UNL     1       8.072  -2.818  24.282  0.00  0.00    +0.000 A 
ENDBRANCH   1  20
TORSDOF 3
ENDMDL
