MODEL 1
REMARK VINA RESULT:      -5.9      0.000      0.000
REMARK  Name = 
REMARK  3 active torsions:
REMARK  status: ('A' for Active; 'I' for Inactive)
REMARK    1  A    between atoms: C_2  and  C_3
REMARK    2  A    between atoms: N_5  and  C_6
REMARK    3  A    between atoms: C_10  and  C_12
REMARK                            x       y       z     vdW  Elec       q    Type
REMARK                         _______ _______ _______ _____ _____    ______ ____
ROOT
ATOM      1  C   UNL     1       6.307  -2.393  22.033  0.00  0.00    +0.000 A 
ATOM      2  C   UNL     1       6.064  -1.683  20.550  0.00  0.00    +0.000 A 
ATOM      3  C   UNL     1       7.018  -0.540  20.399  0.00  0.00    +0.000 A 
ATOM      4  C   UNL     1       8.253  -0.069  21.112  0.00  0.00    +0.000 A 
ATOM      5  C   UNL     1       8.405  -0.824  22.509  0.00  0.00    +0.000 A 
ATOM      6  C   UNL     1       7.445  -1.785  22.722  0.00  0.00    +0.000 A 
ENDROOT
BRANCH   5   7
ATOM      7  C   UNL     1       9.759  -1.046  22.753  0.00  0.00    +0.000 C 
ATOM      8  O   UNL     1      10.526  -1.746  22.180  0.00  0.00    +0.000 OA
ATOM      9  N   UNL     1      10.197  -0.042  23.610  0.00  0.00    +0.000 N 
ATOM     10  C   UNL     1       9.438  -0.006  24.886  0.00  0.00    +0.000 C 
ATOM     11  C   UNL     1       8.161   0.781  24.629  0.00  0.00    +0.000 C 
ATOM     12  S   UNL     1       8.533   2.534  24.439  0.00  0.00    +0.000 S 
ATOM     13  C   UNL     1      10.266   2.374  23.978  0.00  0.00    +0.000 C 
ATOM     14  C   UNL     1      10.469   1.253  22.985  0.00  0.00    +0.000 C 
ENDBRANCH   5   7
BRANCH   1  17
ATOM     15  C   UNL     1       5.419  -4.433  22.287  0.00  0.00    +0.000 C 
ATOM     16  O   UNL     1       4.405  -4.001  22.783  0.00  0.00    +0.000 OA
ATOM     17  N   UNL     1       6.360  -3.611  21.888  0.00  0.00    +0.000 NA
BRANCH  15  19
ATOM     18 CL   UNL     1       7.479  -6.147  22.006  0.00  0.00    +0.000 Cl
ATOM     19  C   UNL     1       5.770  -5.923  22.463  0.00  0.00    +0.000 C 
ENDBRANCH  15  19
ENDBRANCH   1  17
TORSDOF 3
ENDMDL
MODEL 2
REMARK VINA RESULT:      -5.7      3.337      5.469
REMARK  Name = 
REMARK  3 active torsions:
REMARK  status: ('A' for Active; 'I' for Inactive)
REMARK    1  A    between atoms: C_2  and  C_3
REMARK    2  A    between atoms: N_5  and  C_6
REMARK    3  A    between atoms: C_10  and  C_12
REMARK                            x       y       z     vdW  Elec       q    Type
REMARK                         _______ _______ _______ _____ _____    ______ ____
ROOT
ATOM      1  C   UNL     1       8.404  -0.655  22.019  0.00  0.00    +0.000 A 
ATOM      2  C   UNL     1       9.976  -0.851  22.523  0.00  0.00    +0.000 A 
ATOM      3  C   UNL     1      10.040  -2.012  23.464  0.00  0.00    +0.000 A 
ATOM      4  C   UNL     1       9.129  -3.146  23.837  0.00  0.00    +0.000 A 
ATOM      5  C   UNL     1       7.656  -2.872  23.290  0.00  0.00    +0.000 A 
ATOM      6  C   UNL     1       7.553  -1.725  22.538  0.00  0.00    +0.000 A 
ENDROOT
BRANCH   5   7
ATOM      7  C   UNL     1       7.091  -4.083  22.897  0.00  0.00    +0.000 C 
ATOM      8  O   UNL     1       7.374  -4.790  21.988  0.00  0.00    +0.000 OA
ATOM      9  N   UNL     1       6.312  -4.542  23.955  0.00  0.00    +0.000 N 
ATOM     10  C   UNL     1       5.253  -3.578  24.347  0.00  0.00    +0.000 C 
ATOM     11  C   UNL     1       5.895  -2.555  25.272  0.00  0.00    +0.000 C 
ATOM     12  S   UNL     1       6.249  -3.296  26.876  0.00  0.00    +0.000 S 
ATOM     13  C   UNL     1       6.290  -5.018  26.353  0.00  0.00    +0.000 C 
ATOM     14  C   UNL     1       7.042  -5.178  25.052  0.00  0.00    +0.000 C 
ENDBRANCH   5   7
BRANCH   1  17
ATOM     15  C   UNL     1       7.685   0.412  20.186  0.00  0.00    +0.000 C 
ATOM     16  O   UNL     1       7.037   1.208  20.825  0.00  0.00    +0.000 OA
ATOM     17  N   UNL     1       8.392  -0.507  20.800  0.00  0.00    +0.000 NA
BRANCH  15  19
ATOM     18 CL   UNL     1       5.640   0.447  18.431  0.00  0.00    +0.000 Cl
ATOM     19  C   UNL     1       7.392   0.233  18.684  0.00  0.00    +0.000 C 
ENDBRANCH  15  19
ENDBRANCH   1  17
TORSDOF 3
ENDMDL
MODEL 3
REMARK VINA RESULT:      -5.5      1.661      1.921
REMARK  Name = 
REMARK  3 active torsions:
REMARK  status: ('A' for Active; 'I' for Inactive)
REMARK    1  A    between atoms: C_2  and  C_3
REMARK    2  A    between atoms: N_5  and  C_6
REMARK    3  A    between atoms: C_10  and  C_12
REMARK                            x       y       z     vdW  Elec       q    Type
REMARK                         _______ _______ _______ _____ _____    ______ ____
ROOT
ATOM      1  C   UNL     1       6.937  -1.249  21.942  0.00  0.00    +0.000 A 
ATOM      2  C   UNL     1       7.150  -0.640  20.410  0.00  0.00    +0.000 A 
ATOM      3  C   UNL     1       7.813   0.698  20.509  0.00  0.00    +0.000 A 
ATOM      4  C   UNL     1       8.535   1.463  21.581  0.00  0.00    +0.000 A 
ATOM      5  C   UNL     1       8.285   0.787  23.004  0.00  0.00    +0.000 A 
ATOM      6  C   UNL     1       7.551  -0.374  22.940  0.00  0.00    +0.000 A 
ENDROOT
BRANCH   5   7
ATOM      7  C   UNL     1       9.447   0.901  23.765  0.00  0.00    +0.000 C 
ATOM      8  O   UNL     1      10.496   0.364  23.629  0.00  0.00    +0.000 OA
ATOM      9  N   UNL     1       9.311   2.032  24.564  0.00  0.00    +0.000 N 
ATOM     10  C   UNL     1       8.118   1.970  25.445  0.00  0.00    +0.000 C 
ATOM     11  C   UNL     1       6.922   2.420  24.618  0.00  0.00    +0.000 C 
ATOM     12  S   UNL     1       6.999   4.196  24.322  0.00  0.00    +0.000 S 
ATOM     13  C   UNL     1       8.769   4.416  24.568  0.00  0.00    +0.000 C 
ATOM     14  C   UNL     1       9.557   3.313  23.901  0.00  0.00    +0.000 C 
ENDBRANCH   5   7
BRANCH   1  17
ATOM     15  C   UNL     1       6.482  -3.442  21.984  0.00  0.00    +0.000 C 
ATOM     16  O   UNL     1       5.288  -3.260  21.937  0.00  0.00    +0.000 OA
ATOM     17  N   UNL     1       7.306  -2.420  21.959  0.00  0.00    +0.000 NA
BRANCH  15  19
ATOM     18 CL   UNL     1       6.452  -6.046  21.296  0.00  0.00    +0.000 Cl
ATOM     19  C   UNL     1       7.021  -4.809  22.447  0.00  0.00    +0.000 C 
ENDBRANCH  15  19
ENDBRANCH   1  17
TORSDOF 3
ENDMDL
MODEL 4
REMARK VINA RESULT:      -5.4      2.103      2.220
REMARK  Name = 
REMARK  3 active torsions:
REMARK  status: ('A' for Active; 'I' for Inactive)
REMARK    1  A    between atoms: C_2  and  C_3
REMARK    2  A    between atoms: N_5  and  C_6
REMARK    3  A    between atoms: C_10  and  C_12
REMARK                            x       y       z     vdW  Elec       q    Type
REMARK                         _______ _______ _______ _____ _____    ______ ____
ROOT
ATOM      1  C   UNL     1       6.791  -2.664  24.119  0.00  0.00    +0.000 A 
ATOM      2  C   UNL     1       5.965  -2.743  22.678  0.00  0.00    +0.000 A 
ATOM      3  C   UNL     1       6.560  -1.754  21.725  0.00  0.00    +0.000 A 
ATOM      4  C   UNL     1       7.822  -0.941  21.668  0.00  0.00    +0.000 A 
ATOM      5  C   UNL     1       8.547  -0.948  23.089  0.00  0.00    +0.000 A 
ATOM      6  C   UNL     1       7.925  -1.746  24.020  0.00  0.00    +0.000 A 
ENDROOT
BRANCH   5   7
ATOM      7  C   UNL     1       9.926  -0.960  22.889  0.00  0.00    +0.000 C 
ATOM      8  O   UNL     1      10.592  -1.711  22.258  0.00  0.00    +0.000 OA
ATOM      9  N   UNL     1      10.414   0.280  23.288  0.00  0.00    +0.000 N 
ATOM     10  C   UNL     1      10.098   0.592  24.705  0.00  0.00    +0.000 C 
ATOM     11  C   UNL     1       8.682   1.147  24.739  0.00  0.00    +0.000 C 
ATOM     12  S   UNL     1       8.643   2.807  24.041  0.00  0.00    +0.000 S 
ATOM     13  C   UNL     1      10.144   2.699  23.052  0.00  0.00    +0.000 C 
ATOM     14  C   UNL     1      10.232   1.373  22.332  0.00  0.00    +0.000 C 
ENDBRANCH   5   7
BRANCH   1  17
ATOM     15  C   UNL     1       6.947  -4.212  25.730  0.00  0.00    +0.000 C 
ATOM     16  O   UNL     1       6.512  -3.467  26.577  0.00  0.00    +0.000 OA
ATOM     17  N   UNL     1       7.057  -3.805  24.488  0.00  0.00    +0.000 NA
BRANCH  15  19
ATOM     18 CL   UNL     1       9.288  -5.484  25.330  0.00  0.00    +0.000 Cl
ATOM     19  C   UNL     1       7.709  -5.480  26.159  0.00  0.00    +0.000 C 
ENDBRANCH  15  19
ENDBRANCH   1  17
TORSDOF 3
ENDMDL
MODEL 5
REMARK VINA RESULT:      -5.4      2.140      2.716
REMARK  Name = 
REMARK  3 active torsions:
REMARK  status: ('A' for Active; 'I' for Inactive)
REMARK    1  A    between atoms: C_2  and  C_3
REMARK    2  A    between atoms: N_5  and  C_6
REMARK    3  A    between atoms: C_10  and  C_12
REMARK                            x       y       z     vdW  Elec       q    Type
REMARK                         _______ _______ _______ _____ _____    ______ ____
ROOT
ATOM      1  C   UNL     1       6.406  -2.900  24.463  0.00  0.00    +0.000 A 
ATOM      2  C   UNL     1       5.379  -1.822  25.202  0.00  0.00    +0.000 A 
ATOM      3  C   UNL     1       5.762  -0.433  24.795  0.00  0.00    +0.000 A 
ATOM      4  C   UNL     1       6.630   0.174  23.731  0.00  0.00    +0.000 A 
ATOM      5  C   UNL     1       7.558  -0.944  23.072  0.00  0.00    +0.000 A 
ATOM      6  C   UNL     1       7.311  -2.211  23.545  0.00  0.00    +0.000 A 
ENDROOT
BRANCH   5   7
ATOM      7  C   UNL     1       7.704  -0.662  21.715  0.00  0.00    +0.000 C 
ATOM      8  O   UNL     1       6.909  -0.737  20.837  0.00  0.00    +0.000 OA
ATOM      9  N   UNL     1       8.881   0.063  21.566  0.00  0.00    +0.000 N 
ATOM     10  C   UNL     1      10.071  -0.664  22.076  0.00  0.00    +0.000 C 
ATOM     11  C   UNL     1      10.129  -0.435  23.579  0.00  0.00    +0.000 C 
ATOM     12  S   UNL     1      10.625   1.261  23.935  0.00  0.00    +0.000 S 
ATOM     13  C   UNL     1      10.145   1.998  22.364  0.00  0.00    +0.000 C 
ATOM     14  C   UNL     1       8.800   1.484  21.905  0.00  0.00    +0.000 C 
ENDBRANCH   5   7
BRANCH   1  17
ATOM     15  C   UNL     1       5.918  -5.078  24.272  0.00  0.00    +0.000 C 
ATOM     16  O   UNL     1       6.733  -5.399  25.104  0.00  0.00    +0.000 OA
ATOM     17  N   UNL     1       5.742  -3.811  23.976  0.00  0.00    +0.000 NA
BRANCH  15  19
ATOM     18 CL   UNL     1       6.545  -6.359  21.987  0.00  0.00    +0.000 Cl
ATOM     19  C   UNL     1       5.365  -6.142  23.306  0.00  0.00    +0.000 C 
ENDBRANCH  15  19
ENDBRANCH   1  17
TORSDOF 3
ENDMDL
MODEL 6
REMARK VINA RESULT:      -5.3      2.729      3.090
REMARK  Name = 
REMARK  3 active torsions:
REMARK  status: ('A' for Active; 'I' for Inactive)
REMARK    1  A    between atoms: C_2  and  C_3
REMARK    2  A    between atoms: N_5  and  C_6
REMARK    3  A    between atoms: C_10  and  C_12
REMARK                            x       y       z     vdW  Elec       q    Type
REMARK                         _______ _______ _______ _____ _____    ______ ____
ROOT
ATOM      1  C   UNL     1       8.488  -1.978  23.370  0.00  0.00    +0.000 A 
ATOM      2  C   UNL     1       8.896  -1.949  21.759  0.00  0.00    +0.000 A 
ATOM      3  C   UNL     1       9.175  -0.535  21.357  0.00  0.00    +0.000 A 
ATOM      4  C   UNL     1       9.422   0.759  22.078  0.00  0.00    +0.000 A 
ATOM      5  C   UNL     1       9.020   0.619  23.615  0.00  0.00    +0.000 A 
ATOM      6  C   UNL     1       8.624  -0.650  23.966  0.00  0.00    +0.000 A 
ENDROOT
BRANCH   5   7
ATOM      7  C   UNL     1       9.911   1.368  24.381  0.00  0.00    +0.000 C 
ATOM      8  O   UNL     1      11.062   1.183  24.600  0.00  0.00    +0.000 OA
ATOM      9  N   UNL     1       9.320   2.607  24.613  0.00  0.00    +0.000 N 
ATOM     10  C   UNL     1       8.009   2.497  25.300  0.00  0.00    +0.000 C 
ATOM     11  C   UNL     1       6.964   2.206  24.234  0.00  0.00    +0.000 C 
ATOM     12  S   UNL     1       6.666   3.674  23.231  0.00  0.00    +0.000 S 
ATOM     13  C   UNL     1       8.222   4.519  23.557  0.00  0.00    +0.000 C 
ATOM     14  C   UNL     1       9.389   3.561  23.505  0.00  0.00    +0.000 C 
ENDBRANCH   5   7
BRANCH   1  17
ATOM     15  C   UNL     1       8.574  -4.011  24.306  0.00  0.00    +0.000 C 
ATOM     16  O   UNL     1       7.410  -4.239  24.072  0.00  0.00    +0.000 OA
ATOM     17  N   UNL     1       9.114  -2.878  23.923  0.00  0.00    +0.000 NA
BRANCH  15  19
ATOM     18 CL   UNL     1       8.177  -5.199  26.692  0.00  0.00    +0.000 Cl
ATOM     19  C   UNL     1       9.313  -4.859  25.359  0.00  0.00    +0.000 C 
ENDBRANCH  15  19
ENDBRANCH   1  17
TORSDOF 3
ENDMDL
MODEL 7
REMARK VINA RESULT:      -5.3      3.802      6.541
REMARK  Name = 
REMARK  3 active torsions:
REMARK  status: ('A' for Active; 'I' for Inactive)
REMARK    1  A    between atoms: C_2  and  C_3
REMARK    2  A    between atoms: N_5  and  C_6
REMARK    3  A    between atoms: C_10  and  C_12
REMARK                            x       y       z     vdW  Elec       q    Type
REMARK                         _______ _______ _______ _____ _____    ______ ____
ROOT
ATOM      1  C   UNL     1       7.083  -1.848  22.421  0.00  0.00    +0.000 A 
ATOM      2  C   UNL     1       8.521  -2.347  23.090  0.00  0.00    +0.000 A 
ATOM      3  C   UNL     1       8.318  -3.685  23.729  0.00  0.00    +0.000 A 
ATOM      4  C   UNL     1       7.259  -4.748  23.684  0.00  0.00    +0.000 A 
ATOM      5  C   UNL     1       5.933  -4.177  23.006  0.00  0.00    +0.000 A 
ATOM      6  C   UNL     1       6.064  -2.890  22.540  0.00  0.00    +0.000 A 
ENDROOT
BRANCH   5   7
ATOM      7  C   UNL     1       5.339  -5.191  22.257  0.00  0.00    +0.000 C 
ATOM      8  O   UNL     1       5.709  -5.709  21.256  0.00  0.00    +0.000 OA
ATOM      9  N   UNL     1       4.356  -5.773  23.052  0.00  0.00    +0.000 N 
ATOM     10  C   UNL     1       3.334  -4.797  23.506  0.00  0.00    +0.000 C 
ATOM     11  C   UNL     1       3.897  -4.092  24.732  0.00  0.00    +0.000 C 
ATOM     12  S   UNL     1       3.909  -5.208  26.146  0.00  0.00    +0.000 S 
ATOM     13  C   UNL     1       3.888  -6.763  25.238  0.00  0.00    +0.000 C 
ATOM     14  C   UNL     1       4.832  -6.723  24.059  0.00  0.00    +0.000 C 
ENDBRANCH   5   7
BRANCH   1  17
ATOM     15  C   UNL     1       7.187  -0.176  20.934  0.00  0.00    +0.000 C 
ATOM     16  O   UNL     1       6.915   0.662  21.762  0.00  0.00    +0.000 OA
ATOM     17  N   UNL     1       7.295  -1.436  21.284  0.00  0.00    +0.000 NA
BRANCH  15  19
ATOM     18 CL   UNL     1       5.618   1.228  19.253  0.00  0.00    +0.000 Cl
ATOM     19  C   UNL     1       7.036   0.162  19.439  0.00  0.00    +0.000 C 
ENDBRANCH  15  19
ENDBRANCH   1  17
TORSDOF 3
ENDMDL
MODEL 8
REMARK VINA RESULT:      -5.3      3.206      4.133
REMARK  Name = 
REMARK  3 active torsions:
REMARK  status: ('A' for Active; 'I' for Inactive)
REMARK    1  A    between atoms: C_2  and  C_3
REMARK    2  A    between atoms: N_5  and  C_6
REMARK    3  A    between atoms: C_10  and  C_12
REMARK                            x       y       z     vdW  Elec       q    Type
REMARK                         _______ _______ _______ _____ _____    ______ ____
ROOT
ATOM      1  C   UNL     1       5.469  -5.236  24.647  0.00  0.00    +0.000 A 
ATOM      2  C   UNL     1       5.422  -6.132  23.248  0.00  0.00    +0.000 A 
ATOM      3  C   UNL     1       6.355  -5.521  22.250  0.00  0.00    +0.000 A 
ATOM      4  C   UNL     1       7.462  -4.506  22.294  0.00  0.00    +0.000 A 
ATOM      5  C   UNL     1       7.433  -3.719  23.681  0.00  0.00    +0.000 A 
ATOM      6  C   UNL     1       6.479  -4.182  24.556  0.00  0.00    +0.000 A 
ENDROOT
BRANCH   5   7
ATOM      7  C   UNL     1       8.743  -3.448  24.070  0.00  0.00    +0.000 C 
ATOM      8  O   UNL     1       9.601  -4.194  24.409  0.00  0.00    +0.000 OA
ATOM      9  N   UNL     1       9.030  -2.143  23.685  0.00  0.00    +0.000 N 
ATOM     10  C   UNL     1       8.097  -1.152  24.278  0.00  0.00    +0.000 C 
ATOM     11  C   UNL     1       6.851  -1.128  23.406  0.00  0.00    +0.000 C 
ATOM     12  S   UNL     1       7.202  -0.320  21.834  0.00  0.00    +0.000 S 
ATOM     13  C   UNL     1       8.987  -0.560  21.822  0.00  0.00    +0.000 C 
ATOM     14  C   UNL     1       9.356  -1.955  22.271  0.00  0.00    +0.000 C 
ENDBRANCH   5   7
BRANCH   1  17
ATOM     15  C   UNL     1       4.608  -6.236  26.456  0.00  0.00    +0.000 C 
ATOM     16  O   UNL     1       3.519  -5.736  26.293  0.00  0.00    +0.000 OA
ATOM     17  N   UNL     1       5.577  -5.997  25.604  0.00  0.00    +0.000 NA
BRANCH  15  19
ATOM     18 CL   UNL     1       6.428  -6.000  28.429  0.00  0.00    +0.000 Cl
ATOM     19  C   UNL     1       4.967  -6.831  27.831  0.00  0.00    +0.000 C 
ENDBRANCH  15  19
ENDBRANCH   1  17
TORSDOF 3
ENDMDL
MODEL 9
REMARK VINA RESULT:      -5.3      3.753      6.109
REMARK  Name = 
REMARK  3 active torsions:
REMARK  status: ('A' for Active; 'I' for Inactive)
REMARK    1  A    between atoms: C_2  and  C_3
REMARK    2  A    between atoms: N_5  and  C_6
REMARK    3  A    between atoms: C_10  and  C_12
REMARK                            x       y       z     vdW  Elec       q    Type
REMARK                         _______ _______ _______ _____ _____    ______ ____
ROOT
ATOM      1  C   UNL     1       8.455   1.365  22.829  0.00  0.00    +0.000 A 
ATOM      2  C   UNL     1       9.917   1.050  22.104  0.00  0.00    +0.000 A 
ATOM      3  C   UNL     1       9.998  -0.412  21.795  0.00  0.00    +0.000 A 
ATOM      4  C   UNL     1       9.026  -1.555  21.741  0.00  0.00    +0.000 A 
ATOM      5  C   UNL     1       7.653  -1.144  22.441  0.00  0.00    +0.000 A 
ATOM      6  C   UNL     1       7.619   0.165  22.859  0.00  0.00    +0.000 A 
ENDROOT
BRANCH   5   7
ATOM      7  C   UNL     1       6.601  -1.740  21.749  0.00  0.00    +0.000 C 
ATOM      8  O   UNL     1       6.221  -1.552  20.640  0.00  0.00    +0.000 OA
ATOM      9  N   UNL     1       6.228  -2.878  22.458  0.00  0.00    +0.000 N 
ATOM     10  C   UNL     1       5.825  -2.576  23.855  0.00  0.00    +0.000 C 
ATOM     11  C   UNL     1       7.099  -2.487  24.682  0.00  0.00    +0.000 C 
ATOM     12  S   UNL     1       7.812  -4.126  24.912  0.00  0.00    +0.000 S 
ATOM     13  C   UNL     1       7.044  -4.934  23.498  0.00  0.00    +0.000 C 
ATOM     14  C   UNL     1       7.083  -4.051  22.273  0.00  0.00    +0.000 C 
ENDBRANCH   5   7
BRANCH   1  17
ATOM     15  C   UNL     1       7.991   3.556  22.820  0.00  0.00    +0.000 C 
ATOM     16  O   UNL     1       8.589   3.753  23.851  0.00  0.00    +0.000 OA
ATOM     17  N   UNL     1       7.952   2.352  22.299  0.00  0.00    +0.000 NA
BRANCH  15  19
ATOM     18 CL   UNL     1       5.337   3.954  22.576  0.00  0.00    +0.000 Cl
ATOM     19  C   UNL     1       6.978   4.605  22.322  0.00  0.00    +0.000 C 
ENDBRANCH  15  19
ENDBRANCH   1  17
TORSDOF 3
ENDMDL
