MODEL 1
REMARK VINA RESULT:      -6.0      0.000      0.000
REMARK  Name = 
REMARK  3 active torsions:
REMARK  status: ('A' for Active; 'I' for Inactive)
REMARK    1  A    between atoms: O_2  and  C_3
REMARK    2  A    between atoms: N_5  and  C_6
REMARK    3  A    between atoms: C_11  and  C_12
REMARK                            x       y       z     vdW  Elec       q    Type
REMARK                         _______ _______ _______ _____ _____    ______ ____
ROOT
ATOM      1  C   UNL     1       8.089  -0.471  21.233  0.00  0.00    +0.000 A 
ATOM      2  S   UNL     1       8.553  -2.047  22.130  0.00  0.00    +0.000 S 
ATOM      3  C   UNL     1       9.233  -1.073  23.481  0.00  0.00    +0.000 A 
ATOM      4  C   UNL     1       8.796  -1.715  24.768  0.00  0.00    +0.000 C 
ATOM      5  N   UNL     1       8.975   0.137  23.295  0.00  0.00    +0.000 NA
ATOM      6  C   UNL     1       8.550   0.500  22.102  0.00  0.00    +0.000 A 
ENDROOT
BRANCH   6   7
ATOM      7  C   UNL     1       9.045   1.825  21.705  0.00  0.00    +0.000 A 
ATOM      8  C   UNL     1       7.838   2.856  22.148  0.00  0.00    +0.000 A 
ATOM      9  C   UNL     1       8.343   3.757  23.229  0.00  0.00    +0.000 A 
ATOM     10  C   UNL     1       9.606   4.057  23.913  0.00  0.00    +0.000 A 
ATOM     11  C   UNL     1      10.784   3.110  23.458  0.00  0.00    +0.000 A 
ATOM     12  C   UNL     1      10.291   2.182  22.413  0.00  0.00    +0.000 A 
ENDBRANCH   6   7
BRANCH   1  15
ATOM     13  C   UNL     1       6.772  -0.059  19.526  0.00  0.00    +0.000 C 
ATOM     14  O   UNL     1       7.685  -0.009  18.727  0.00  0.00    +0.000 OA
ATOM     15  N   UNL     1       6.892  -0.815  20.651  0.00  0.00    +0.000 NA
BRANCH  13  17
ATOM     16  C   UNL     1       4.999   1.316  18.900  0.00  0.00    +0.000 C 
ATOM     17  O   UNL     1       6.033   1.020  19.807  0.00  0.00    +0.000 OA
ENDBRANCH  13  17
ENDBRANCH   1  15
TORSDOF 3
ENDMDL
MODEL 2
REMARK VINA RESULT:      -5.9      3.458      5.185
REMARK  Name = 
REMARK  3 active torsions:
REMARK  status: ('A' for Active; 'I' for Inactive)
REMARK    1  A    between atoms: O_2  and  C_3
REMARK    2  A    between atoms: N_5  and  C_6
REMARK    3  A    between atoms: C_11  and  C_12
REMARK                            x       y       z     vdW  Elec       q    Type
REMARK                         _______ _______ _______ _____ _____    ______ ____
ROOT
ATOM      1  C   UNL     1       7.719  -3.156  22.927  0.00  0.00    +0.000 A 
ATOM      2  S   UNL     1       6.034  -2.604  22.328  0.00  0.00    +0.000 S 
ATOM      3  C   UNL     1       6.801  -1.248  21.428  0.00  0.00    +0.000 A 
ATOM      4  C   UNL     1       6.142  -1.167  20.080  0.00  0.00    +0.000 C 
ATOM      5  N   UNL     1       8.046  -1.363  21.483  0.00  0.00    +0.000 NA
ATOM      6  C   UNL     1       8.549  -2.207  22.361  0.00  0.00    +0.000 A 
ENDROOT
BRANCH   6   7
ATOM      7  C   UNL     1       9.811  -1.732  22.942  0.00  0.00    +0.000 A 
ATOM      8  C   UNL     1      10.167  -0.374  22.078  0.00  0.00    +0.000 A 
ATOM      9  C   UNL     1      10.106   0.810  22.988  0.00  0.00    +0.000 A 
ATOM     10  C   UNL     1       9.936   1.093  24.418  0.00  0.00    +0.000 A 
ATOM     11  C   UNL     1       9.647  -0.207  25.265  0.00  0.00    +0.000 A 
ATOM     12  C   UNL     1       9.665  -1.388  24.371  0.00  0.00    +0.000 A 
ENDBRANCH   6   7
BRANCH   1  15
ATOM     13  C   UNL     1       7.840  -4.956  24.177  0.00  0.00    +0.000 C 
ATOM     14  O   UNL     1       7.262  -4.445  25.115  0.00  0.00    +0.000 OA
ATOM     15  N   UNL     1       7.594  -4.525  22.910  0.00  0.00    +0.000 NA
BRANCH  13  17
ATOM     16  C   UNL     1       9.772  -5.021  25.476  0.00  0.00    +0.000 C 
ATOM     17  O   UNL     1       9.121  -5.329  24.267  0.00  0.00    +0.000 OA
ENDBRANCH  13  17
ENDBRANCH   1  15
TORSDOF 3
ENDMDL
MODEL 3
REMARK VINA RESULT:      -5.8      2.769      4.427
REMARK  Name = 
REMARK  3 active torsions:
REMARK  status: ('A' for Active; 'I' for Inactive)
REMARK    1  A    between atoms: O_2  and  C_3
REMARK    2  A    between atoms: N_5  and  C_6
REMARK    3  A    between atoms: C_11  and  C_12
REMARK                            x       y       z     vdW  Elec       q    Type
REMARK                         _______ _______ _______ _____ _____    ______ ____
ROOT
ATOM      1  C   UNL     1       8.056  -1.748  22.131  0.00  0.00    +0.000 A 
ATOM      2  S   UNL     1       6.487  -1.357  21.189  0.00  0.00    +0.000 S 
ATOM      3  C   UNL     1       7.353  -0.062  20.290  0.00  0.00    +0.000 A 
ATOM      4  C   UNL     1       6.945  -0.159  18.847  0.00  0.00    +0.000 C 
ATOM      5  N   UNL     1       8.571  -0.100  20.575  0.00  0.00    +0.000 NA
ATOM      6  C   UNL     1       8.939  -0.819  21.615  0.00  0.00    +0.000 A 
ENDROOT
BRANCH   6   7
ATOM      7  C   UNL     1      10.058  -0.215  22.352  0.00  0.00    +0.000 A 
ATOM      8  C   UNL     1      10.008   1.377  21.927  0.00  0.00    +0.000 A 
ATOM      9  C   UNL     1       9.680   2.191  23.136  0.00  0.00    +0.000 A 
ATOM     10  C   UNL     1       9.505   1.998  24.581  0.00  0.00    +0.000 A 
ATOM     11  C   UNL     1       9.603   0.483  25.008  0.00  0.00    +0.000 A 
ATOM     12  C   UNL     1       9.890  -0.346  23.813  0.00  0.00    +0.000 A 
ENDBRANCH   6   7
BRANCH   1  15
ATOM     13  C   UNL     1       8.029  -3.400  23.577  0.00  0.00    +0.000 C 
ATOM     14  O   UNL     1       7.282  -2.826  24.343  0.00  0.00    +0.000 OA
ATOM     15  N   UNL     1       7.986  -3.116  22.246  0.00  0.00    +0.000 NA
BRANCH  13  17
ATOM     16  C   UNL     1       9.454  -4.449  25.091  0.00  0.00    +0.000 C 
ATOM     17  O   UNL     1       9.289  -3.690  23.918  0.00  0.00    +0.000 OA
ENDBRANCH  13  17
ENDBRANCH   1  15
TORSDOF 3
ENDMDL
MODEL 4
REMARK VINA RESULT:      -5.6      3.673      5.893
REMARK  Name = 
REMARK  3 active torsions:
REMARK  status: ('A' for Active; 'I' for Inactive)
REMARK    1  A    between atoms: O_2  and  C_3
REMARK    2  A    between atoms: N_5  and  C_6
REMARK    3  A    between atoms: C_11  and  C_12
REMARK                            x       y       z     vdW  Elec       q    Type
REMARK                         _______ _______ _______ _____ _____    ______ ____
ROOT
ATOM      1  C   UNL     1       8.548  -2.189  22.705  0.00  0.00    +0.000 A 
ATOM      2  S   UNL     1       9.389  -2.325  24.371  0.00  0.00    +0.000 S 
ATOM      3  C   UNL     1       8.611  -3.926  24.630  0.00  0.00    +0.000 A 
ATOM      4  C   UNL     1       9.647  -4.847  25.210  0.00  0.00    +0.000 C 
ATOM      5  N   UNL     1       8.013  -4.273  23.588  0.00  0.00    +0.000 NA
ATOM      6  C   UNL     1       7.817  -3.361  22.657  0.00  0.00    +0.000 A 
ENDROOT
BRANCH   6   7
ATOM      7  C   UNL     1       6.533  -3.530  21.963  0.00  0.00    +0.000 A 
ATOM      8  C   UNL     1       6.575  -5.081  21.409  0.00  0.00    +0.000 A 
ATOM      9  C   UNL     1       5.513  -5.873  22.102  0.00  0.00    +0.000 A 
ATOM     10  C   UNL     1       4.397  -5.646  23.028  0.00  0.00    +0.000 A 
ATOM     11  C   UNL     1       4.315  -4.151  23.526  0.00  0.00    +0.000 A 
ATOM     12  C   UNL     1       5.385  -3.358  22.878  0.00  0.00    +0.000 A 
ENDBRANCH   6   7
BRANCH   1  15
ATOM     13  C   UNL     1       8.985  -0.395  21.519  0.00  0.00    +0.000 C 
ATOM     14  O   UNL     1       8.462   0.359  22.315  0.00  0.00    +0.000 OA
ATOM     15  N   UNL     1       9.515  -1.573  21.946  0.00  0.00    +0.000 NA
BRANCH  13  17
ATOM     16  C   UNL     1       7.524   0.375  19.877  0.00  0.00    +0.000 C 
ATOM     17  O   UNL     1       8.488  -0.564  20.289  0.00  0.00    +0.000 OA
ENDBRANCH  13  17
ENDBRANCH   1  15
TORSDOF 3
ENDMDL
MODEL 5
REMARK VINA RESULT:      -5.6      4.261      6.929
REMARK  Name = 
REMARK  3 active torsions:
REMARK  status: ('A' for Active; 'I' for Inactive)
REMARK    1  A    between atoms: O_2  and  C_3
REMARK    2  A    between atoms: N_5  and  C_6
REMARK    3  A    between atoms: C_11  and  C_12
REMARK                            x       y       z     vdW  Elec       q    Type
REMARK                         _______ _______ _______ _____ _____    ______ ____
ROOT
ATOM      1  C   UNL     1       8.475  -2.829  23.476  0.00  0.00    +0.000 A 
ATOM      2  S   UNL     1      10.000  -1.881  22.948  0.00  0.00    +0.000 S 
ATOM      3  C   UNL     1       9.062  -1.122  21.614  0.00  0.00    +0.000 A 
ATOM      4  C   UNL     1       9.428   0.335  21.572  0.00  0.00    +0.000 C 
ATOM      5  N   UNL     1       7.855  -1.436  21.721  0.00  0.00    +0.000 NA
ATOM      6  C   UNL     1       7.545  -2.420  22.540  0.00  0.00    +0.000 A 
ENDROOT
BRANCH   6   7
ATOM      7  C   UNL     1       6.429  -3.236  22.043  0.00  0.00    +0.000 A 
ATOM      8  C   UNL     1       7.091  -4.728  21.813  0.00  0.00    +0.000 A 
ATOM      9  C   UNL     1       6.462  -5.691  22.767  0.00  0.00    +0.000 A 
ATOM     10  C   UNL     1       5.370  -5.716  23.748  0.00  0.00    +0.000 A 
ATOM     11  C   UNL     1       4.693  -4.304  23.939  0.00  0.00    +0.000 A 
ATOM     12  C   UNL     1       5.331  -3.326  23.028  0.00  0.00    +0.000 A 
ENDBRANCH   6   7
BRANCH   1  15
ATOM     13  C   UNL     1       8.937  -4.089  25.213  0.00  0.00    +0.000 C 
ATOM     14  O   UNL     1       9.861  -4.652  24.664  0.00  0.00    +0.000 OA
ATOM     15  N   UNL     1       8.596  -2.824  24.846  0.00  0.00    +0.000 NA
BRANCH  13  17
ATOM     16  C   UNL     1       7.786  -5.218  26.895  0.00  0.00    +0.000 C 
ATOM     17  O   UNL     1       7.829  -4.750  25.568  0.00  0.00    +0.000 OA
ENDBRANCH  13  17
ENDBRANCH   1  15
TORSDOF 3
ENDMDL
MODEL 6
REMARK VINA RESULT:      -5.6      3.437      4.547
REMARK  Name = 
REMARK  3 active torsions:
REMARK  status: ('A' for Active; 'I' for Inactive)
REMARK    1  A    between atoms: O_2  and  C_3
REMARK    2  A    between atoms: N_5  and  C_6
REMARK    3  A    between atoms: C_11  and  C_12
REMARK                            x       y       z     vdW  Elec       q    Type
REMARK                         _______ _______ _______ _____ _____    ______ ____
ROOT
ATOM      1  C   UNL     1       7.979  -3.422  24.067  0.00  0.00    +0.000 A 
ATOM      2  S   UNL     1       8.508  -3.243  25.853  0.00  0.00    +0.000 S 
ATOM      3  C   UNL     1       8.865  -1.503  25.570  0.00  0.00    +0.000 A 
ATOM      4  C   UNL     1       8.337  -0.733  26.748  0.00  0.00    +0.000 C 
ATOM      5  N   UNL     1       8.486  -1.181  24.422  0.00  0.00    +0.000 NA
ATOM      6  C   UNL     1       8.189  -2.147  23.577  0.00  0.00    +0.000 A 
ENDROOT
BRANCH   6   7
ATOM      7  C   UNL     1       8.565  -1.823  22.194  0.00  0.00    +0.000 A 
ATOM      8  C   UNL     1       7.157  -1.316  21.502  0.00  0.00    +0.000 A 
ATOM      9  C   UNL     1       7.287   0.129  21.142  0.00  0.00    +0.000 A 
ATOM     10  C   UNL     1       8.320   1.171  21.123  0.00  0.00    +0.000 A 
ATOM     11  C   UNL     1       9.689   0.682  21.735  0.00  0.00    +0.000 A 
ATOM     12  C   UNL     1       9.567  -0.740  22.134  0.00  0.00    +0.000 A 
ENDBRANCH   6   7
BRANCH   1  15
ATOM     13  C   UNL     1       7.064  -5.192  23.147  0.00  0.00    +0.000 C 
ATOM     14  O   UNL     1       8.128  -5.750  22.966  0.00  0.00    +0.000 OA
ATOM     15  N   UNL     1       6.928  -4.302  24.167  0.00  0.00    +0.000 NA
BRANCH  13  17
ATOM     16  C   UNL     1       6.231  -5.677  21.026  0.00  0.00    +0.000 C 
ATOM     17  O   UNL     1       6.303  -4.796  22.121  0.00  0.00    +0.000 OA
ENDBRANCH  13  17
ENDBRANCH   1  15
TORSDOF 3
ENDMDL
MODEL 7
REMARK VINA RESULT:      -5.4      2.871      5.186
REMARK  Name = 
REMARK  3 active torsions:
REMARK  status: ('A' for Active; 'I' for Inactive)
REMARK    1  A    between atoms: O_2  and  C_3
REMARK    2  A    between atoms: N_5  and  C_6
REMARK    3  A    between atoms: C_11  and  C_12
REMARK                            x       y       z     vdW  Elec       q    Type
REMARK                         _______ _______ _______ _____ _____    ______ ____
ROOT
ATOM      1  C   UNL     1       8.939  -0.714  23.734  0.00  0.00    +0.000 A 
ATOM      2  S   UNL     1       9.336   0.934  24.525  0.00  0.00    +0.000 S 
ATOM      3  C   UNL     1       8.434   1.777  23.216  0.00  0.00    +0.000 A 
ATOM      4  C   UNL     1       7.610   2.858  23.856  0.00  0.00    +0.000 C 
ATOM      5  N   UNL     1       7.861   0.931  22.494  0.00  0.00    +0.000 NA
ATOM      6  C   UNL     1       8.221  -0.330  22.617  0.00  0.00    +0.000 A 
ENDROOT
BRANCH   6   7
ATOM      7  C   UNL     1       8.195  -1.052  21.338  0.00  0.00    +0.000 A 
ATOM      8  C   UNL     1       6.747  -1.841  21.350  0.00  0.00    +0.000 A 
ATOM      9  C   UNL     1       5.885  -1.288  20.262  0.00  0.00    +0.000 A 
ATOM     10  C   UNL     1       5.993  -0.347  19.140  0.00  0.00    +0.000 A 
ATOM     11  C   UNL     1       7.394   0.376  19.087  0.00  0.00    +0.000 A 
ATOM     12  C   UNL     1       8.251  -0.132  20.184  0.00  0.00    +0.000 A 
ENDBRANCH   6   7
BRANCH   1  15
ATOM     13  C   UNL     1       9.123  -2.774  24.470  0.00  0.00    +0.000 C 
ATOM     14  O   UNL     1      10.203  -2.953  23.946  0.00  0.00    +0.000 OA
ATOM     15  N   UNL     1       8.742  -1.518  24.831  0.00  0.00    +0.000 NA
BRANCH  13  17
ATOM     16  C   UNL     1       8.181  -4.862  24.045  0.00  0.00    +0.000 C 
ATOM     17  O   UNL     1       8.041  -3.462  24.089  0.00  0.00    +0.000 OA
ENDBRANCH  13  17
ENDBRANCH   1  15
TORSDOF 3
ENDMDL
MODEL 8
REMARK VINA RESULT:      -5.4      3.100      4.572
REMARK  Name = 
REMARK  3 active torsions:
REMARK  status: ('A' for Active; 'I' for Inactive)
REMARK    1  A    between atoms: O_2  and  C_3
REMARK    2  A    between atoms: N_5  and  C_6
REMARK    3  A    between atoms: C_11  and  C_12
REMARK                            x       y       z     vdW  Elec       q    Type
REMARK                         _______ _______ _______ _____ _____    ______ ____
ROOT
ATOM      1  C   UNL     1       8.878  -1.385  24.764  0.00  0.00    +0.000 A 
ATOM      2  S   UNL     1       8.381  -2.770  25.921  0.00  0.00    +0.000 S 
ATOM      3  C   UNL     1       9.016  -3.975  24.745  0.00  0.00    +0.000 A 
ATOM      4  C   UNL     1       9.773  -5.013  25.524  0.00  0.00    +0.000 C 
ATOM      5  N   UNL     1       9.598  -3.380  23.812  0.00  0.00    +0.000 NA
ATOM      6  C   UNL     1       9.409  -2.081  23.695  0.00  0.00    +0.000 A 
ENDROOT
BRANCH   6   7
ATOM      7  C   UNL     1       9.371  -1.639  22.294  0.00  0.00    +0.000 A 
ATOM      8  C   UNL     1       7.766  -1.439  21.978  0.00  0.00    +0.000 A 
ATOM      9  C   UNL     1       7.500   0.008  21.717  0.00  0.00    +0.000 A 
ATOM     10  C   UNL     1       8.256   1.256  21.554  0.00  0.00    +0.000 A 
ATOM     11  C   UNL     1       9.802   1.066  21.803  0.00  0.00    +0.000 A 
ATOM     12  C   UNL     1      10.080  -0.358  22.101  0.00  0.00    +0.000 A 
ENDBRANCH   6   7
BRANCH   1  15
ATOM     13  C   UNL     1       8.367   0.578  25.604  0.00  0.00    +0.000 C 
ATOM     14  O   UNL     1       7.189   0.311  25.728  0.00  0.00    +0.000 OA
ATOM     15  N   UNL     1       9.297  -0.415  25.643  0.00  0.00    +0.000 NA
BRANCH  13  17
ATOM     16  C   UNL     1       8.333   2.833  25.022  0.00  0.00    +0.000 C 
ATOM     17  O   UNL     1       8.782   1.526  24.756  0.00  0.00    +0.000 OA
ENDBRANCH  13  17
ENDBRANCH   1  15
TORSDOF 3
ENDMDL
MODEL 9
REMARK VINA RESULT:      -5.4      3.257      5.996
REMARK  Name = 
REMARK  3 active torsions:
REMARK  status: ('A' for Active; 'I' for Inactive)
REMARK    1  A    between atoms: O_2  and  C_3
REMARK    2  A    between atoms: N_5  and  C_6
REMARK    3  A    between atoms: C_11  and  C_12
REMARK                            x       y       z     vdW  Elec       q    Type
REMARK                         _______ _______ _______ _____ _____    ______ ____
ROOT
ATOM      1  C   UNL     1       8.278  -0.340  22.954  0.00  0.00    +0.000 A 
ATOM      2  S   UNL     1       9.099   0.170  21.352  0.00  0.00    +0.000 S 
ATOM      3  C   UNL     1       7.738  -0.556  20.427  0.00  0.00    +0.000 A 
ATOM      4  C   UNL     1       7.379   0.398  19.322  0.00  0.00    +0.000 C 
ATOM      5  N   UNL     1       6.842  -0.922  21.220  0.00  0.00    +0.000 NA
ATOM      6  C   UNL     1       7.142  -0.984  22.501  0.00  0.00    +0.000 A 
ENDROOT
BRANCH   6   7
ATOM      7  C   UNL     1       6.472  -2.100  23.184  0.00  0.00    +0.000 A 
ATOM      8  C   UNL     1       5.734  -2.932  21.967  0.00  0.00    +0.000 A 
ATOM      9  C   UNL     1       6.360  -4.285  21.857  0.00  0.00    +0.000 A 
ATOM     10  C   UNL     1       7.340  -5.108  22.576  0.00  0.00    +0.000 A 
ATOM     11  C   UNL     1       8.016  -4.339  23.776  0.00  0.00    +0.000 A 
ATOM     12  C   UNL     1       7.435  -2.979  23.877  0.00  0.00    +0.000 A 
ENDBRANCH   6   7
BRANCH   1  15
ATOM     13  C   UNL     1       9.216   0.205  24.862  0.00  0.00    +0.000 C 
ATOM     14  O   UNL     1      10.156  -0.548  24.710  0.00  0.00    +0.000 OA
ATOM     15  N   UNL     1       8.574   0.720  23.778  0.00  0.00    +0.000 NA
BRANCH  13  17
ATOM     16  C   UNL     1       8.706  -0.877  26.861  0.00  0.00    +0.000 C 
ATOM     17  O   UNL     1       8.327   0.019  25.844  0.00  0.00    +0.000 OA
ENDBRANCH  13  17
ENDBRANCH   1  15
TORSDOF 3
ENDMDL
