MODEL 1
REMARK VINA RESULT:      -6.3      0.000      0.000
REMARK  Name = 
REMARK  6 active torsions:
REMARK  status: ('A' for Active; 'I' for Inactive)
REMARK    1  A    between atoms: N_4  and  C_5
REMARK    2  A    between atoms: C_5  and  C_6
REMARK    3  A    between atoms: C_5  and  C_14
REMARK    4  A    between atoms: C_6  and  C_7
REMARK    5  A    between atoms: N_16  and  C_17
REMARK    6  A    between atoms: C_17  and  C_18
REMARK                            x       y       z     vdW  Elec       q    Type
REMARK                         _______ _______ _______ _____ _____    ______ ____
ROOT
ATOM      1  C   UNL     1       9.051  -2.389  23.440  0.00  0.00    +0.000 C 
ENDROOT
BRANCH   1   5
ATOM      2  C   UNL     1       7.766  -4.535  26.084  0.00  0.00    +0.000 C 
ATOM      3  C   UNL     1       8.437  -4.408  24.710  0.00  0.00    +0.000 C 
ATOM      4  O   UNL     1       9.168  -5.298  24.330  0.00  0.00    +0.000 OA
ATOM      5  N   UNL     1       8.219  -3.293  24.053  0.00  0.00    +0.000 NA
ENDBRANCH   1   5
BRANCH   1   6
ATOM      6  C   UNL     1       9.314  -1.102  24.157  0.00  0.00    +0.000 C 
ATOM      7  O   UNL     1       8.769  -0.807  25.203  0.00  0.00    +0.000 OA
ATOM      8  N   UNL     1      10.405  -0.415  23.738  0.00  0.00    +0.000 NA
BRANCH   8   9
ATOM      9  C   UNL     1      10.947   0.666  24.527  0.00  0.00    +0.000 C 
BRANCH   9  10
ATOM     10  C   UNL     1      10.511   1.952  23.977  0.00  0.00    +0.000 C 
ATOM     11  C   UNL     1      10.155   3.007  23.531  0.00  0.00    +0.000 C 
ATOM     12 BR   UNL     1       8.705   2.900  23.057  0.00  0.00    +0.000 Br
ENDBRANCH   9  10
ENDBRANCH   8   9
ENDBRANCH   1   6
BRANCH   1  13
ATOM     13  C   UNL     1       8.850  -2.149  21.978  0.00  0.00    +0.000 C 
BRANCH  13  14
ATOM     14  C   UNL     1       7.749  -1.147  21.751  0.00  0.00    +0.000 A 
ATOM     15  C   UNL     1       6.402  -1.997  21.324  0.00  0.00    +0.000 A 
ATOM     16  C   UNL     1       5.816  -1.396  20.106  0.00  0.00    +0.000 A 
ATOM     17  C   UNL     1       6.232  -0.464  19.037  0.00  0.00    +0.000 A 
ATOM     18  C   UNL     1       7.497   0.355  19.425  0.00  0.00    +0.000 A 
ATOM     19  C   UNL     1       8.022  -0.087  20.775  0.00  0.00    +0.000 A 
ATOM     20  O   UNL     1       6.142  -0.914  17.751  0.00  0.00    +0.000 OA
ENDBRANCH  13  14
ENDBRANCH   1  13
TORSDOF 6
ENDMDL
MODEL 2
REMARK VINA RESULT:      -6.3      2.188      2.642
REMARK  Name = 
REMARK  6 active torsions:
REMARK  status: ('A' for Active; 'I' for Inactive)
REMARK    1  A    between atoms: N_4  and  C_5
REMARK    2  A    between atoms: C_5  and  C_6
REMARK    3  A    between atoms: C_5  and  C_14
REMARK    4  A    between atoms: C_6  and  C_7
REMARK    5  A    between atoms: N_16  and  C_17
REMARK    6  A    between atoms: C_17  and  C_18
REMARK                            x       y       z     vdW  Elec       q    Type
REMARK                         _______ _______ _______ _____ _____    ______ ____
ROOT
ATOM      1  C   UNL     1       7.933  -2.239  22.310  0.00  0.00    +0.000 C 
ENDROOT
BRANCH   1   5
ATOM      2  C   UNL     1       7.138  -5.739  21.704  0.00  0.00    +0.000 C 
ATOM      3  C   UNL     1       6.652  -4.290  21.840  0.00  0.00    +0.000 C 
ATOM      4  O   UNL     1       5.649  -3.950  21.250  0.00  0.00    +0.000 OA
ATOM      5  N   UNL     1       7.406  -3.484  22.550  0.00  0.00    +0.000 NA
ENDBRANCH   1   5
BRANCH   1   6
ATOM      6  C   UNL     1       9.196  -1.878  23.026  0.00  0.00    +0.000 C 
ATOM      7  O   UNL     1      10.298  -2.013  22.530  0.00  0.00    +0.000 OA
ATOM      8  N   UNL     1       9.038  -1.120  24.140  0.00  0.00    +0.000 NA
BRANCH   8   9
ATOM      9  C   UNL     1      10.164  -0.452  24.746  0.00  0.00    +0.000 C 
BRANCH   9  10
ATOM     10  C   UNL     1      10.241   0.930  24.267  0.00  0.00    +0.000 C 
ATOM     11  C   UNL     1      10.302   2.063  23.877  0.00  0.00    +0.000 C 
ATOM     12 BR   UNL     1      10.216   2.084  22.350  0.00  0.00    +0.000 Br
ENDBRANCH   9  10
ENDBRANCH   8   9
ENDBRANCH   1   6
BRANCH   1  13
ATOM     13  C   UNL     1       6.986  -1.082  22.289  0.00  0.00    +0.000 C 
BRANCH  13  14
ATOM     14  C   UNL     1       7.289  -0.168  21.131  0.00  0.00    +0.000 A 
ATOM     15  C   UNL     1       6.831   1.351  21.581  0.00  0.00    +0.000 A 
ATOM     16  C   UNL     1       5.996   1.941  20.512  0.00  0.00    +0.000 A 
ATOM     17  C   UNL     1       5.245   1.475  19.327  0.00  0.00    +0.000 A 
ATOM     18  C   UNL     1       5.671   0.046  18.882  0.00  0.00    +0.000 A 
ATOM     19  C   UNL     1       6.691  -0.528  19.841  0.00  0.00    +0.000 A 
ATOM     20  O   UNL     1       3.916   1.783  19.274  0.00  0.00    +0.000 OA
ENDBRANCH  13  14
ENDBRANCH   1  13
TORSDOF 6
ENDMDL
MODEL 3
REMARK VINA RESULT:      -6.2      2.304      5.011
REMARK  Name = 
REMARK  6 active torsions:
REMARK  status: ('A' for Active; 'I' for Inactive)
REMARK    1  A    between atoms: N_4  and  C_5
REMARK    2  A    between atoms: C_5  and  C_6
REMARK    3  A    between atoms: C_5  and  C_14
REMARK    4  A    between atoms: C_6  and  C_7
REMARK    5  A    between atoms: N_16  and  C_17
REMARK    6  A    between atoms: C_17  and  C_18
REMARK                            x       y       z     vdW  Elec       q    Type
REMARK                         _______ _______ _______ _____ _____    ______ ____
ROOT
ATOM      1  C   UNL     1       7.580   0.142  20.771  0.00  0.00    +0.000 C 
ENDROOT
BRANCH   1   5
ATOM      2  C   UNL     1       5.908   1.242  17.732  0.00  0.00    +0.000 C 
ATOM      3  C   UNL     1       6.475   0.090  18.571  0.00  0.00    +0.000 C 
ATOM      4  O   UNL     1       5.998  -1.018  18.444  0.00  0.00    +0.000 OA
ATOM      5  N   UNL     1       7.414   0.401  19.433  0.00  0.00    +0.000 NA
ENDBRANCH   1   5
BRANCH   1   6
ATOM      6  C   UNL     1       8.127   1.247  21.621  0.00  0.00    +0.000 C 
ATOM      7  O   UNL     1       7.446   1.865  22.417  0.00  0.00    +0.000 OA
ATOM      8  N   UNL     1       9.479   1.328  21.672  0.00  0.00    +0.000 NA
BRANCH   8   9
ATOM      9  C   UNL     1      10.134   2.133  22.675  0.00  0.00    +0.000 C 
BRANCH   9  10
ATOM     10  C   UNL     1      10.515   1.295  23.815  0.00  0.00    +0.000 C 
ATOM     11  C   UNL     1      10.831   0.608  24.747  0.00  0.00    +0.000 C 
ATOM     12 BR   UNL     1       9.582  -0.029  25.358  0.00  0.00    +0.000 Br
ENDBRANCH   9  10
ENDBRANCH   8   9
ENDBRANCH   1   6
BRANCH   1  13
ATOM     13  C   UNL     1       8.192  -1.169  21.149  0.00  0.00    +0.000 C 
BRANCH  13  14
ATOM     14  C   UNL     1       7.360  -1.859  22.198  0.00  0.00    +0.000 A 
ATOM     15  C   UNL     1       8.393  -2.752  23.123  0.00  0.00    +0.000 A 
ATOM     16  C   UNL     1       7.862  -4.127  23.251  0.00  0.00    +0.000 A 
ATOM     17  C   UNL     1       6.858  -4.980  22.579  0.00  0.00    +0.000 A 
ATOM     18  C   UNL     1       5.868  -4.153  21.709  0.00  0.00    +0.000 A 
ATOM     19  C   UNL     1       6.252  -2.688  21.712  0.00  0.00    +0.000 A 
ATOM     20  O   UNL     1       7.292  -6.174  22.080  0.00  0.00    +0.000 OA
ENDBRANCH  13  14
ENDBRANCH   1  13
TORSDOF 6
ENDMDL
MODEL 4
REMARK VINA RESULT:      -6.1      3.122      6.513
REMARK  Name = 
REMARK  6 active torsions:
REMARK  status: ('A' for Active; 'I' for Inactive)
REMARK    1  A    between atoms: N_4  and  C_5
REMARK    2  A    between atoms: C_5  and  C_6
REMARK    3  A    between atoms: C_5  and  C_14
REMARK    4  A    between atoms: C_6  and  C_7
REMARK    5  A    between atoms: N_16  and  C_17
REMARK    6  A    between atoms: C_17  and  C_18
REMARK                            x       y       z     vdW  Elec       q    Type
REMARK                         _______ _______ _______ _____ _____    ______ ____
ROOT
ATOM      1  C   UNL     1       6.864  -0.825  20.343  0.00  0.00    +0.000 C 
ENDROOT
BRANCH   1   5
ATOM      2  C   UNL     1       6.302   1.365  17.492  0.00  0.00    +0.000 C 
ATOM      3  C   UNL     1       5.717   0.549  18.652  0.00  0.00    +0.000 C 
ATOM      4  O   UNL     1       4.661   0.895  19.138  0.00  0.00    +0.000 OA
ATOM      5  N   UNL     1       6.446  -0.450  19.091  0.00  0.00    +0.000 NA
ENDBRANCH   1   5
BRANCH   1   6
ATOM      6  C   UNL     1       6.051  -1.860  21.058  0.00  0.00    +0.000 C 
ATOM      7  O   UNL     1       5.517  -2.790  20.485  0.00  0.00    +0.000 OA
ATOM      8  N   UNL     1       6.182  -1.874  22.407  0.00  0.00    +0.000 NA
BRANCH   8   9
ATOM      9  C   UNL     1       5.707  -2.993  23.185  0.00  0.00    +0.000 C 
BRANCH   9  10
ATOM     10  C   UNL     1       6.659  -4.103  23.095  0.00  0.00    +0.000 C 
ATOM     11  C   UNL     1       7.443  -5.009  23.023  0.00  0.00    +0.000 C 
ATOM     12 BR   UNL     1       7.092  -5.894  21.826  0.00  0.00    +0.000 Br
ENDBRANCH   9  10
ENDBRANCH   8   9
ENDBRANCH   1   6
BRANCH   1  13
ATOM     13  C   UNL     1       7.285   0.258  21.284  0.00  0.00    +0.000 C 
BRANCH  13  14
ATOM     14  C   UNL     1       8.780   0.440  21.249  0.00  0.00    +0.000 A 
ATOM     15  C   UNL     1       9.449  -0.945  21.843  0.00  0.00    +0.000 A 
ATOM     16  C   UNL     1      10.450  -0.595  22.875  0.00  0.00    +0.000 A 
ATOM     17  C   UNL     1      10.808   0.578  23.699  0.00  0.00    +0.000 A 
ATOM     18  C   UNL     1      10.193   1.897  23.148  0.00  0.00    +0.000 A 
ATOM     19  C   UNL     1       9.312   1.613  21.950  0.00  0.00    +0.000 A 
ATOM     20  O   UNL     1      10.820   0.406  25.053  0.00  0.00    +0.000 OA
ENDBRANCH  13  14
ENDBRANCH   1  13
TORSDOF 6
ENDMDL
MODEL 5
REMARK VINA RESULT:      -6.0      2.761      4.922
REMARK  Name = 
REMARK  6 active torsions:
REMARK  status: ('A' for Active; 'I' for Inactive)
REMARK    1  A    between atoms: N_4  and  C_5
REMARK    2  A    between atoms: C_5  and  C_6
REMARK    3  A    between atoms: C_5  and  C_14
REMARK    4  A    between atoms: C_6  and  C_7
REMARK    5  A    between atoms: N_16  and  C_17
REMARK    6  A    between atoms: C_17  and  C_18
REMARK                            x       y       z     vdW  Elec       q    Type
REMARK                         _______ _______ _______ _____ _____    ______ ____
ROOT
ATOM      1  C   UNL     1       7.103  -1.868  23.132  0.00  0.00    +0.000 C 
ENDROOT
BRANCH   1   5
ATOM      2  C   UNL     1       4.748  -4.602  23.605  0.00  0.00    +0.000 C 
ATOM      3  C   UNL     1       5.334  -3.521  22.687  0.00  0.00    +0.000 C 
ATOM      4  O   UNL     1       5.311  -3.697  21.487  0.00  0.00    +0.000 OA
ATOM      5  N   UNL     1       5.888  -2.488  23.276  0.00  0.00    +0.000 NA
ENDBRANCH   1   5
BRANCH   1   6
ATOM      6  C   UNL     1       7.173  -0.701  22.196  0.00  0.00    +0.000 C 
ATOM      7  O   UNL     1       7.111   0.453  22.575  0.00  0.00    +0.000 OA
ATOM      8  N   UNL     1       7.600  -0.986  20.941  0.00  0.00    +0.000 NA
BRANCH   8   9
ATOM      9  C   UNL     1       8.003   0.067  20.040  0.00  0.00    +0.000 C 
BRANCH   9  10
ATOM     10  C   UNL     1       6.934   0.332  19.074  0.00  0.00    +0.000 C 
ATOM     11  C   UNL     1       6.062   0.549  18.278  0.00  0.00    +0.000 C 
ATOM     12 BR   UNL     1       4.970   1.394  18.936  0.00  0.00    +0.000 Br
ENDBRANCH   9  10
ENDBRANCH   8   9
ENDBRANCH   1   6
BRANCH   1  13
ATOM     13  C   UNL     1       8.309  -2.739  22.981  0.00  0.00    +0.000 C 
BRANCH  13  14
ATOM     14  C   UNL     1       9.440  -2.233  23.837  0.00  0.00    +0.000 A 
ATOM     15  C   UNL     1       8.775  -1.685  25.243  0.00  0.00    +0.000 A 
ATOM     16  C   UNL     1       9.300  -0.332  25.531  0.00  0.00    +0.000 A 
ATOM     17  C   UNL     1      10.002   0.747  24.805  0.00  0.00    +0.000 A 
ATOM     18  C   UNL     1      10.645   0.246  23.479  0.00  0.00    +0.000 A 
ATOM     19  C   UNL     1      10.304  -1.210  23.240  0.00  0.00    +0.000 A 
ATOM     20  O   UNL     1       9.408   1.976  24.793  0.00  0.00    +0.000 OA
ENDBRANCH  13  14
ENDBRANCH   1  13
TORSDOF 6
ENDMDL
MODEL 6
REMARK VINA RESULT:      -5.9      2.865      4.960
REMARK  Name = 
REMARK  6 active torsions:
REMARK  status: ('A' for Active; 'I' for Inactive)
REMARK    1  A    between atoms: N_4  and  C_5
REMARK    2  A    between atoms: C_5  and  C_6
REMARK    3  A    between atoms: C_5  and  C_14
REMARK    4  A    between atoms: C_6  and  C_7
REMARK    5  A    between atoms: N_16  and  C_17
REMARK    6  A    between atoms: C_17  and  C_18
REMARK                            x       y       z     vdW  Elec       q    Type
REMARK                         _______ _______ _______ _____ _____    ______ ____
ROOT
ATOM      1  C   UNL     1       8.810  -1.451  23.288  0.00  0.00    +0.000 C 
ENDROOT
BRANCH   1   5
ATOM      2  C   UNL     1       7.940   1.287  25.523  0.00  0.00    +0.000 C 
ATOM      3  C   UNL     1       8.479  -0.139  25.346  0.00  0.00    +0.000 C 
ATOM      4  O   UNL     1       9.248  -0.582  26.173  0.00  0.00    +0.000 OA
ATOM      5  N   UNL     1       8.113  -0.772  24.256  0.00  0.00    +0.000 NA
ENDBRANCH   1   5
BRANCH   1   6
ATOM      6  C   UNL     1       9.006  -2.922  23.487  0.00  0.00    +0.000 C 
ATOM      7  O   UNL     1       9.936  -3.384  24.119  0.00  0.00    +0.000 OA
ATOM      8  N   UNL     1       7.939  -3.699  23.176  0.00  0.00    +0.000 NA
BRANCH   8   9
ATOM      9  C   UNL     1       7.879  -5.077  23.600  0.00  0.00    +0.000 C 
BRANCH   9  10
ATOM     10  C   UNL     1       7.053  -5.192  24.805  0.00  0.00    +0.000 C 
ATOM     11  C   UNL     1       6.373  -5.284  25.789  0.00  0.00    +0.000 C 
ATOM     12 BR   UNL     1       7.214  -4.956  27.024  0.00  0.00    +0.000 Br
ENDBRANCH   9  10
ENDBRANCH   8   9
ENDBRANCH   1   6
BRANCH   1  13
ATOM     13  C   UNL     1      10.059  -0.817  22.765  0.00  0.00    +0.000 C 
BRANCH  13  14
ATOM     14  C   UNL     1       9.741   0.138  21.645  0.00  0.00    +0.000 A 
ATOM     15  C   UNL     1       9.715   1.654  22.294  0.00  0.00    +0.000 A 
ATOM     16  C   UNL     1       8.474   2.340  21.870  0.00  0.00    +0.000 A 
ATOM     17  C   UNL     1       7.165   1.975  21.290  0.00  0.00    +0.000 A 
ATOM     18  C   UNL     1       7.173   0.551  20.663  0.00  0.00    +0.000 A 
ATOM     19  C   UNL     1       8.509  -0.124  20.893  0.00  0.00    +0.000 A 
ATOM     20  O   UNL     1       6.051   2.353  21.982  0.00  0.00    +0.000 OA
ENDBRANCH  13  14
ENDBRANCH   1  13
TORSDOF 6
ENDMDL
MODEL 7
REMARK VINA RESULT:      -5.9      2.699      5.355
REMARK  Name = 
REMARK  6 active torsions:
REMARK  status: ('A' for Active; 'I' for Inactive)
REMARK    1  A    between atoms: N_4  and  C_5
REMARK    2  A    between atoms: C_5  and  C_6
REMARK    3  A    between atoms: C_5  and  C_14
REMARK    4  A    between atoms: C_6  and  C_7
REMARK    5  A    between atoms: N_16  and  C_17
REMARK    6  A    between atoms: C_17  and  C_18
REMARK                            x       y       z     vdW  Elec       q    Type
REMARK                         _______ _______ _______ _____ _____    ______ ____
ROOT
ATOM      1  C   UNL     1       7.607   0.964  21.413  0.00  0.00    +0.000 C 
ENDROOT
BRANCH   1   5
ATOM      2  C   UNL     1       5.618  -0.270  18.626  0.00  0.00    +0.000 C 
ATOM      3  C   UNL     1       6.964   0.254  19.145  0.00  0.00    +0.000 C 
ATOM      4  O   UNL     1       7.982  -0.088  18.582  0.00  0.00    +0.000 OA
ATOM      5  N   UNL     1       6.925   1.001  20.223  0.00  0.00    +0.000 NA
ENDBRANCH   1   5
BRANCH   1   6
ATOM      6  C   UNL     1       6.795   1.006  22.671  0.00  0.00    +0.000 C 
ATOM      7  O   UNL     1       6.760   0.085  23.464  0.00  0.00    +0.000 OA
ATOM      8  N   UNL     1       6.335   2.230  23.026  0.00  0.00    +0.000 NA
BRANCH   8   9
ATOM      9  C   UNL     1       5.811   2.469  24.350  0.00  0.00    +0.000 C 
BRANCH   9  10
ATOM     10  C   UNL     1       6.858   3.027  25.208  0.00  0.00    +0.000 C 
ATOM     11  C   UNL     1       7.714   3.483  25.915  0.00  0.00    +0.000 C 
ATOM     12 BR   UNL     1       8.432   4.617  25.180  0.00  0.00    +0.000 Br
ENDBRANCH   9  10
ENDBRANCH   8   9
ENDBRANCH   1   6
BRANCH   1  13
ATOM     13  C   UNL     1       8.823   1.824  21.539  0.00  0.00    +0.000 C 
BRANCH  13  14
ATOM     14  C   UNL     1       9.981   1.030  22.085  0.00  0.00    +0.000 A 
ATOM     15  C   UNL     1       9.748  -0.539  21.631  0.00  0.00    +0.000 A 
ATOM     16  C   UNL     1       9.908  -1.413  22.813  0.00  0.00    +0.000 A 
ATOM     17  C   UNL     1       9.933  -1.272  24.284  0.00  0.00    +0.000 A 
ATOM     18  C   UNL     1      10.162   0.201  24.732  0.00  0.00    +0.000 A 
ATOM     19  C   UNL     1      10.213   1.121  23.530  0.00  0.00    +0.000 A 
ATOM     20  O   UNL     1       9.036  -2.015  24.995  0.00  0.00    +0.000 OA
ENDBRANCH  13  14
ENDBRANCH   1  13
TORSDOF 6
ENDMDL
MODEL 8
REMARK VINA RESULT:      -5.9      2.974      5.569
REMARK  Name = 
REMARK  6 active torsions:
REMARK  status: ('A' for Active; 'I' for Inactive)
REMARK    1  A    between atoms: N_4  and  C_5
REMARK    2  A    between atoms: C_5  and  C_6
REMARK    3  A    between atoms: C_5  and  C_14
REMARK    4  A    between atoms: C_6  and  C_7
REMARK    5  A    between atoms: N_16  and  C_17
REMARK    6  A    between atoms: C_17  and  C_18
REMARK                            x       y       z     vdW  Elec       q    Type
REMARK                         _______ _______ _______ _____ _____    ______ ____
ROOT
ATOM      1  C   UNL     1       7.653  -3.227  22.941  0.00  0.00    +0.000 C 
ENDROOT
BRANCH   1   5
ATOM      2  C   UNL     1       6.122  -5.998  21.145  0.00  0.00    +0.000 C 
ATOM      3  C   UNL     1       6.516  -5.363  22.486  0.00  0.00    +0.000 C 
ATOM      4  O   UNL     1       5.869  -5.635  23.475  0.00  0.00    +0.000 OA
ATOM      5  N   UNL     1       7.507  -4.503  22.458  0.00  0.00    +0.000 NA
ENDBRANCH   1   5
BRANCH   1   6
ATOM      6  C   UNL     1       7.101  -2.111  22.111  0.00  0.00    +0.000 C 
ATOM      7  O   UNL     1       5.935  -2.058  21.769  0.00  0.00    +0.000 OA
ATOM      8  N   UNL     1       7.893  -1.015  22.006  0.00  0.00    +0.000 NA
BRANCH   8   9
ATOM      9  C   UNL     1       7.369   0.232  21.504  0.00  0.00    +0.000 C 
BRANCH   9  10
ATOM     10  C   UNL     1       7.384   0.225  20.039  0.00  0.00    +0.000 C 
ATOM     11  C   UNL     1       7.401   0.221  18.839  0.00  0.00    +0.000 C 
ATOM     12 BR   UNL     1       5.984   0.444  18.307  0.00  0.00    +0.000 Br
ENDBRANCH   9  10
ENDBRANCH   8   9
ENDBRANCH   1   6
BRANCH   1  13
ATOM     13  C   UNL     1       8.984  -2.854  23.511  0.00  0.00    +0.000 C 
BRANCH  13  14
ATOM     14  C   UNL     1       8.997  -3.052  25.004  0.00  0.00    +0.000 A 
ATOM     15  C   UNL     1       9.573  -4.571  25.286  0.00  0.00    +0.000 A 
ATOM     16  C   UNL     1       8.664  -5.267  26.223  0.00  0.00    +0.000 A 
ATOM     17  C   UNL     1       7.288  -5.104  26.737  0.00  0.00    +0.000 A 
ATOM     18  C   UNL     1       6.730  -3.673  26.489  0.00  0.00    +0.000 A 
ATOM     19  C   UNL     1       7.723  -2.844  25.701  0.00  0.00    +0.000 A 
ATOM     20  O   UNL     1       6.432  -6.153  26.565  0.00  0.00    +0.000 OA
ENDBRANCH  13  14
ENDBRANCH   1  13
TORSDOF 6
ENDMDL
MODEL 9
REMARK VINA RESULT:      -5.9      2.179      2.734
REMARK  Name = 
REMARK  6 active torsions:
REMARK  status: ('A' for Active; 'I' for Inactive)
REMARK    1  A    between atoms: N_4  and  C_5
REMARK    2  A    between atoms: C_5  and  C_6
REMARK    3  A    between atoms: C_5  and  C_14
REMARK    4  A    between atoms: C_6  and  C_7
REMARK    5  A    between atoms: N_16  and  C_17
REMARK    6  A    between atoms: C_17  and  C_18
REMARK                            x       y       z     vdW  Elec       q    Type
REMARK                         _______ _______ _______ _____ _____    ______ ____
ROOT
ATOM      1  C   UNL     1       7.536  -3.985  23.322  0.00  0.00    +0.000 C 
ENDROOT
BRANCH   1   5
ATOM      2  C   UNL     1       4.532  -5.774  24.331  0.00  0.00    +0.000 C 
ATOM      3  C   UNL     1       5.296  -5.004  23.246  0.00  0.00    +0.000 C 
ATOM      4  O   UNL     1       5.057  -5.241  22.081  0.00  0.00    +0.000 OA
ATOM      5  N   UNL     1       6.219  -4.168  23.661  0.00  0.00    +0.000 NA
ENDBRANCH   1   5
BRANCH   1   6
ATOM      6  C   UNL     1       8.457  -3.482  24.390  0.00  0.00    +0.000 C 
ATOM      7  O   UNL     1       9.667  -3.571  24.314  0.00  0.00    +0.000 OA
ATOM      8  N   UNL     1       7.890  -2.663  25.310  0.00  0.00    +0.000 NA
BRANCH   8   9
ATOM      9  C   UNL     1       8.706  -1.873  26.201  0.00  0.00    +0.000 C 
BRANCH   9  10
ATOM     10  C   UNL     1       8.985  -0.569  25.596  0.00  0.00    +0.000 C 
ATOM     11  C   UNL     1       9.210   0.500  25.098  0.00  0.00    +0.000 C 
ATOM     12 BR   UNL     1      10.639   0.519  24.551  0.00  0.00    +0.000 Br
ENDBRANCH   9  10
ENDBRANCH   8   9
ENDBRANCH   1   6
BRANCH   1  13
ATOM     13  C   UNL     1       7.826  -3.315  22.017  0.00  0.00    +0.000 C 
BRANCH  13  14
ATOM     14  C   UNL     1       7.203  -1.946  21.972  0.00  0.00    +0.000 A 
ATOM     15  C   UNL     1       6.033  -1.983  20.810  0.00  0.00    +0.000 A 
ATOM     16  C   UNL     1       6.207  -0.821  19.911  0.00  0.00    +0.000 A 
ATOM     17  C   UNL     1       7.256   0.171  19.595  0.00  0.00    +0.000 A 
ATOM     18  C   UNL     1       8.364   0.228  20.686  0.00  0.00    +0.000 A 
ATOM     19  C   UNL     1       8.115  -0.819  21.751  0.00  0.00    +0.000 A 
ATOM     20  O   UNL     1       7.650   0.264  18.291  0.00  0.00    +0.000 OA
ENDBRANCH  13  14
ENDBRANCH   1  13
TORSDOF 6
ENDMDL
