MODEL 1
REMARK VINA RESULT:      -4.6      0.000      0.000
REMARK  Name = 
REMARK  2 active torsions:
REMARK  status: ('A' for Active; 'I' for Inactive)
REMARK    1  A    between atoms: C_2  and  N_3
REMARK    2  A    between atoms: C_7  and  C_8
REMARK                            x       y       z     vdW  Elec       q    Type
REMARK                         _______ _______ _______ _____ _____    ______ ____
ROOT
ATOM      1  N   UNL     1       8.954  -2.671  23.021  0.00  0.00    +0.000 NA
ATOM      2  C   UNL     1       9.536  -2.730  24.189  0.00  0.00    +0.000 A 
ATOM      3  C   UNL     1       8.580  -2.148  25.381  0.00  0.00    +0.000 A 
ATOM      4  C   UNL     1       8.345  -3.176  26.427  0.00  0.00    +0.000 A 
ATOM      5  C   UNL     1       8.747  -4.609  26.550  0.00  0.00    +0.000 A 
ATOM      6  C   UNL     1       9.515  -5.010  25.272  0.00  0.00    +0.000 A 
ATOM      7  N   UNL     1       9.862  -3.985  24.470  0.00  0.00    +0.000 NA
ENDROOT
BRANCH   1   9
ATOM      8  C   UNL     1       9.299  -0.731  21.580  0.00  0.00    +0.000 C 
ATOM      9  C   UNL     1       8.341  -1.649  22.315  0.00  0.00    +0.000 C 
ENDBRANCH   1   9
BRANCH   5  10
ATOM     10  C   UNL     1       7.602  -5.272  26.558  0.00  0.00    +0.000 C 
ATOM     11  N   UNL     1       7.403  -5.684  27.650  0.00  0.00    +0.000 NA
ENDBRANCH   5  10
TORSDOF 2
ENDMDL
MODEL 2
REMARK VINA RESULT:      -4.5      4.255      6.970
REMARK  Name = 
REMARK  2 active torsions:
REMARK  status: ('A' for Active; 'I' for Inactive)
REMARK    1  A    between atoms: C_2  and  N_3
REMARK    2  A    between atoms: C_7  and  C_8
REMARK                            x       y       z     vdW  Elec       q    Type
REMARK                         _______ _______ _______ _____ _____    ______ ____
ROOT
ATOM      1  N   UNL     1       7.711   0.389  23.225  0.00  0.00    +0.000 NA
ATOM      2  C   UNL     1       8.126   0.964  22.128  0.00  0.00    +0.000 A 
ATOM      3  C   UNL     1       8.868  -0.093  21.125  0.00  0.00    +0.000 A 
ATOM      4  C   UNL     1       8.192  -0.136  19.802  0.00  0.00    +0.000 A 
ATOM      5  C   UNL     1       6.967   0.527  19.266  0.00  0.00    +0.000 A 
ATOM      6  C   UNL     1       6.333   1.366  20.398  0.00  0.00    +0.000 A 
ATOM      7  N   UNL     1       7.102   1.518  21.493  0.00  0.00    +0.000 NA
ENDROOT
BRANCH   1   9
ATOM      8  C   UNL     1       9.555   0.231  24.818  0.00  0.00    +0.000 C 
ATOM      9  C   UNL     1       8.334  -0.402  24.179  0.00  0.00    +0.000 C 
ENDBRANCH   1   9
BRANCH   5  10
ATOM     10  C   UNL     1       6.144  -0.472  18.994  0.00  0.00    +0.000 C 
ATOM     11  N   UNL     1       5.973  -0.524  17.824  0.00  0.00    +0.000 NA
ENDBRANCH   5  10
TORSDOF 2
ENDMDL
MODEL 3
REMARK VINA RESULT:      -4.5      3.653      4.628
REMARK  Name = 
REMARK  2 active torsions:
REMARK  status: ('A' for Active; 'I' for Inactive)
REMARK    1  A    between atoms: C_2  and  N_3
REMARK    2  A    between atoms: C_7  and  C_8
REMARK                            x       y       z     vdW  Elec       q    Type
REMARK                         _______ _______ _______ _____ _____    ______ ____
ROOT
ATOM      1  N   UNL     1       8.192  -0.181  20.980  0.00  0.00    +0.000 NA
ATOM      2  C   UNL     1       9.445  -0.103  21.342  0.00  0.00    +0.000 A 
ATOM      3  C   UNL     1       9.805   1.350  21.998  0.00  0.00    +0.000 A 
ATOM      4  C   UNL     1      10.330   1.197  23.379  0.00  0.00    +0.000 A 
ATOM      5  C   UNL     1      10.515   0.012  24.269  0.00  0.00    +0.000 A 
ATOM      6  C   UNL     1       9.990  -1.238  23.530  0.00  0.00    +0.000 A 
ATOM      7  N   UNL     1       9.721  -1.056  22.223  0.00  0.00    +0.000 NA
ENDROOT
BRANCH   1   9
ATOM      8  C   UNL     1       7.345   0.206  18.724  0.00  0.00    +0.000 C 
ATOM      9  C   UNL     1       7.381   0.612  20.185  0.00  0.00    +0.000 C 
ENDBRANCH   1   9
BRANCH   5  10
ATOM     10  C   UNL     1       9.712   0.243  25.295  0.00  0.00    +0.000 C 
ATOM     11  N   UNL     1       9.210  -0.776  25.628  0.00  0.00    +0.000 NA
ENDBRANCH   5  10
TORSDOF 2
ENDMDL
MODEL 4
REMARK VINA RESULT:      -4.3      2.876      3.940
REMARK  Name = 
REMARK  2 active torsions:
REMARK  status: ('A' for Active; 'I' for Inactive)
REMARK    1  A    between atoms: C_2  and  N_3
REMARK    2  A    between atoms: C_7  and  C_8
REMARK                            x       y       z     vdW  Elec       q    Type
REMARK                         _______ _______ _______ _____ _____    ______ ____
ROOT
ATOM      1  N   UNL     1       8.846  -1.485  22.012  0.00  0.00    +0.000 NA
ATOM      2  C   UNL     1       7.790  -1.895  22.663  0.00  0.00    +0.000 A 
ATOM      3  C   UNL     1       6.510  -2.126  21.672  0.00  0.00    +0.000 A 
ATOM      4  C   UNL     1       6.018  -3.525  21.752  0.00  0.00    +0.000 A 
ATOM      5  C   UNL     1       6.502  -4.731  22.488  0.00  0.00    +0.000 A 
ATOM      6  C   UNL     1       7.791  -4.351  23.249  0.00  0.00    +0.000 A 
ATOM      7  N   UNL     1       8.059  -3.031  23.292  0.00  0.00    +0.000 NA
ENDROOT
BRANCH   1   9
ATOM      8  C   UNL     1       9.709   0.784  21.763  0.00  0.00    +0.000 C 
ATOM      9  C   UNL     1       9.074  -0.439  21.132  0.00  0.00    +0.000 C 
ENDBRANCH   1   9
BRANCH   5  10
ATOM     10  C   UNL     1       6.832  -5.587  21.535  0.00  0.00    +0.000 C 
ATOM     11  N   UNL     1       6.002  -5.564  20.692  0.00  0.00    +0.000 NA
ENDBRANCH   5  10
TORSDOF 2
ENDMDL
MODEL 5
REMARK VINA RESULT:      -4.3      3.027      4.799
REMARK  Name = 
REMARK  2 active torsions:
REMARK  status: ('A' for Active; 'I' for Inactive)
REMARK    1  A    between atoms: C_2  and  N_3
REMARK    2  A    between atoms: C_7  and  C_8
REMARK                            x       y       z     vdW  Elec       q    Type
REMARK                         _______ _______ _______ _____ _____    ______ ____
ROOT
ATOM      1  N   UNL     1       8.441   1.903  21.827  0.00  0.00    +0.000 NA
ATOM      2  C   UNL     1       9.638   1.395  21.949  0.00  0.00    +0.000 A 
ATOM      3  C   UNL     1      10.135   1.362  23.506  0.00  0.00    +0.000 A 
ATOM      4  C   UNL     1      10.461  -0.023  23.933  0.00  0.00    +0.000 A 
ATOM      5  C   UNL     1      10.354  -1.347  23.251  0.00  0.00    +0.000 A 
ATOM      6  C   UNL     1       9.737  -1.126  21.853  0.00  0.00    +0.000 A 
ATOM      7  N   UNL     1       9.658   0.161  21.463  0.00  0.00    +0.000 NA
ENDROOT
BRANCH   1   9
ATOM      8  C   UNL     1       6.350   3.121  22.148  0.00  0.00    +0.000 C 
ATOM      9  C   UNL     1       7.862   3.087  22.255  0.00  0.00    +0.000 C 
ENDBRANCH   1   9
BRANCH   5  10
ATOM     10  C   UNL     1       9.478  -2.022  23.978  0.00  0.00    +0.000 C 
ATOM     11  N   UNL     1       9.815  -3.155  24.033  0.00  0.00    +0.000 NA
ENDBRANCH   5  10
TORSDOF 2
ENDMDL
MODEL 6
REMARK VINA RESULT:      -4.3      2.453      5.823
REMARK  Name = 
REMARK  2 active torsions:
REMARK  status: ('A' for Active; 'I' for Inactive)
REMARK    1  A    between atoms: C_2  and  N_3
REMARK    2  A    between atoms: C_7  and  C_8
REMARK                            x       y       z     vdW  Elec       q    Type
REMARK                         _______ _______ _______ _____ _____    ______ ____
ROOT
ATOM      1  N   UNL     1       9.340  -1.960  24.211  0.00  0.00    +0.000 NA
ATOM      2  C   UNL     1      10.119  -1.442  23.299  0.00  0.00    +0.000 A 
ATOM      3  C   UNL     1       9.402  -1.405  21.830  0.00  0.00    +0.000 A 
ATOM      4  C   UNL     1       9.334  -0.017  21.304  0.00  0.00    +0.000 A 
ATOM      5  C   UNL     1       9.719   1.306  21.878  0.00  0.00    +0.000 A 
ATOM      6  C   UNL     1      10.239   1.080  23.315  0.00  0.00    +0.000 A 
ATOM      7  N   UNL     1      10.461  -0.207  23.644  0.00  0.00    +0.000 NA
ENDROOT
BRANCH   1   9
ATOM      8  C   UNL     1       9.390  -4.282  24.963  0.00  0.00    +0.000 C 
ATOM      9  C   UNL     1       8.634  -3.150  24.294  0.00  0.00    +0.000 C 
ENDBRANCH   1   9
BRANCH   5  10
ATOM     10  C   UNL     1       8.579   1.973  21.962  0.00  0.00    +0.000 C 
ATOM     11  N   UNL     1       8.688   2.822  22.779  0.00  0.00    +0.000 NA
ENDBRANCH   5  10
TORSDOF 2
ENDMDL
MODEL 7
REMARK VINA RESULT:      -4.2      2.610      6.126
REMARK  Name = 
REMARK  2 active torsions:
REMARK  status: ('A' for Active; 'I' for Inactive)
REMARK    1  A    between atoms: C_2  and  N_3
REMARK    2  A    between atoms: C_7  and  C_8
REMARK                            x       y       z     vdW  Elec       q    Type
REMARK                         _______ _______ _______ _____ _____    ______ ____
ROOT
ATOM      1  N   UNL     1       8.181  -1.719  23.848  0.00  0.00    +0.000 NA
ATOM      2  C   UNL     1       8.684  -0.633  23.325  0.00  0.00    +0.000 A 
ATOM      3  C   UNL     1       9.550  -0.946  21.974  0.00  0.00    +0.000 A 
ATOM      4  C   UNL     1       9.008  -0.202  20.808  0.00  0.00    +0.000 A 
ATOM      5  C   UNL     1       7.822   0.689  20.635  0.00  0.00    +0.000 A 
ATOM      6  C   UNL     1       7.057   0.747  21.976  0.00  0.00    +0.000 A 
ATOM      7  N   UNL     1       7.711   0.218  23.028  0.00  0.00    +0.000 NA
ENDROOT
BRANCH   1   9
ATOM      8  C   UNL     1       8.025  -4.148  23.659  0.00  0.00    +0.000 C 
ATOM      9  C   UNL     1       8.731  -2.933  24.230  0.00  0.00    +0.000 C 
ENDBRANCH   1   9
BRANCH   5  10
ATOM     10  C   UNL     1       7.058   0.053  19.762  0.00  0.00    +0.000 C 
ATOM     11  N   UNL     1       7.569   0.102  18.695  0.00  0.00    +0.000 NA
ENDBRANCH   5  10
TORSDOF 2
ENDMDL
MODEL 8
REMARK VINA RESULT:      -4.2      3.567      5.523
REMARK  Name = 
REMARK  2 active torsions:
REMARK  status: ('A' for Active; 'I' for Inactive)
REMARK    1  A    between atoms: C_2  and  N_3
REMARK    2  A    between atoms: C_7  and  C_8
REMARK                            x       y       z     vdW  Elec       q    Type
REMARK                         _______ _______ _______ _____ _____    ______ ____
ROOT
ATOM      1  N   UNL     1       8.744  -2.177  22.852  0.00  0.00    +0.000 NA
ATOM      2  C   UNL     1       9.678  -1.455  22.292  0.00  0.00    +0.000 A 
ATOM      3  C   UNL     1       9.067  -0.401  21.202  0.00  0.00    +0.000 A 
ATOM      4  C   UNL     1       9.424   0.998  21.553  0.00  0.00    +0.000 A 
ATOM      5  C   UNL     1      10.148   1.600  22.712  0.00  0.00    +0.000 A 
ATOM      6  C   UNL     1      10.518   0.468  23.696  0.00  0.00    +0.000 A 
ATOM      7  N   UNL     1      10.345  -0.780  23.219  0.00  0.00    +0.000 NA
ENDROOT
BRANCH   1   9
ATOM      8  C   UNL     1       6.328  -2.446  22.635  0.00  0.00    +0.000 C 
ATOM      9  C   UNL     1       7.723  -2.967  22.349  0.00  0.00    +0.000 C 
ENDBRANCH   1   9
BRANCH   5  10
ATOM     10  C   UNL     1       9.245   2.368  23.301  0.00  0.00    +0.000 C 
ATOM     11  N   UNL     1       9.449   2.378  24.467  0.00  0.00    +0.000 NA
ENDBRANCH   5  10
TORSDOF 2
ENDMDL
MODEL 9
REMARK VINA RESULT:      -4.1      3.666      5.639
REMARK  Name = 
REMARK  2 active torsions:
REMARK  status: ('A' for Active; 'I' for Inactive)
REMARK    1  A    between atoms: C_2  and  N_3
REMARK    2  A    between atoms: C_7  and  C_8
REMARK                            x       y       z     vdW  Elec       q    Type
REMARK                         _______ _______ _______ _____ _____    ______ ____
ROOT
ATOM      1  N   UNL     1       7.147   2.107  22.584  0.00  0.00    +0.000 NA
ATOM      2  C   UNL     1       7.720   1.500  21.579  0.00  0.00    +0.000 A 
ATOM      3  C   UNL     1       9.343   1.412  21.760  0.00  0.00    +0.000 A 
ATOM      4  C   UNL     1       9.806   0.001  21.737  0.00  0.00    +0.000 A 
ATOM      5  C   UNL     1       9.084  -1.304  21.654  0.00  0.00    +0.000 A 
ATOM      6  C   UNL     1       7.566  -1.019  21.634  0.00  0.00    +0.000 A 
ATOM      7  N   UNL     1       7.232   0.273  21.454  0.00  0.00    +0.000 NA
ENDROOT
BRANCH   1   9
ATOM      8  C   UNL     1       7.243   4.526  22.269  0.00  0.00    +0.000 C 
ATOM      9  C   UNL     1       7.355   3.332  23.198  0.00  0.00    +0.000 C 
ENDBRANCH   1   9
BRANCH   5  10
ATOM     10  C   UNL     1       9.367  -1.909  22.796  0.00  0.00    +0.000 C 
ATOM     11  N   UNL     1      10.516  -2.195  22.807  0.00  0.00    +0.000 NA
ENDBRANCH   5  10
TORSDOF 2
ENDMDL
