MODEL 1
REMARK VINA RESULT:      -6.1      0.000      0.000
REMARK  Name = 
REMARK  2 active torsions:
REMARK  status: ('A' for Active; 'I' for Inactive)
REMARK    1  A    between atoms: C_2  and  C_3
REMARK    2  A    between atoms: C_8  and  C_11
REMARK                            x       y       z     vdW  Elec       q    Type
REMARK                         _______ _______ _______ _____ _____    ______ ____
ROOT
ATOM      1  C   UNL     1       8.436  -4.665  24.821  0.00  0.00    +0.000 C 
ATOM      2  O   UNL     1       8.759  -5.466  23.955  0.00  0.00    +0.000 OA
ATOM      3  N   UNL     1       8.386  -3.331  24.478  0.00  0.00    +0.000 N 
ATOM      4  C   UNL     1       9.631  -2.747  23.992  0.00  0.00    +0.000 C 
ATOM      5  C   UNL     1       9.569  -1.235  24.159  0.00  0.00    +0.000 C 
ATOM      6  C   UNL     1       8.336  -0.705  23.445  0.00  0.00    +0.000 C 
ATOM      7  C   UNL     1       7.085  -1.311  24.030  0.00  0.00    +0.000 C 
ATOM      8  C   UNL     1       7.121  -2.819  23.996  0.00  0.00    +0.000 C 
ENDROOT
BRANCH   6   9
ATOM      9  C   UNL     1       8.436  -1.112  21.986  0.00  0.00    +0.000 C 
ATOM     10  O   UNL     1       9.526  -1.406  21.511  0.00  0.00    +0.000 OA
ATOM     11  N   UNL     1       7.485  -0.588  21.173  0.00  0.00    +0.000 N 
ATOM     12  C   UNL     1       7.483   0.854  20.958  0.00  0.00    +0.000 C 
ATOM     13  C   UNL     1       6.387   1.186  19.946  0.00  0.00    +0.000 C 
ATOM     14  C   UNL     1       6.385   0.131  18.852  0.00  0.00    +0.000 C 
ATOM     15  C   UNL     1       5.934  -1.204  19.398  0.00  0.00    +0.000 C 
ATOM     16  C   UNL     1       6.303  -1.357  20.859  0.00  0.00    +0.000 C 
ENDBRANCH   6   9
BRANCH   1  18
ATOM     17 CL   UNL     1       7.440  -5.288  27.246  0.00  0.00    +0.000 Cl
ATOM     18  C   UNL     1       8.878  -4.893  26.263  0.00  0.00    +0.000 C 
ENDBRANCH   1  18
TORSDOF 2
ENDMDL
MODEL 2
REMARK VINA RESULT:      -5.9      2.514      3.491
REMARK  Name = 
REMARK  2 active torsions:
REMARK  status: ('A' for Active; 'I' for Inactive)
REMARK    1  A    between atoms: C_2  and  C_3
REMARK    2  A    between atoms: C_8  and  C_11
REMARK                            x       y       z     vdW  Elec       q    Type
REMARK                         _______ _______ _______ _____ _____    ______ ____
ROOT
ATOM      1  C   UNL     1       6.231  -5.420  26.092  0.00  0.00    +0.000 C 
ATOM      2  O   UNL     1       6.553  -4.720  27.042  0.00  0.00    +0.000 OA
ATOM      3  N   UNL     1       6.139  -4.822  24.854  0.00  0.00    +0.000 N 
ATOM      4  C   UNL     1       5.184  -3.725  24.743  0.00  0.00    +0.000 C 
ATOM      5  C   UNL     1       4.816  -3.533  23.278  0.00  0.00    +0.000 C 
ATOM      6  C   UNL     1       6.085  -3.313  22.470  0.00  0.00    +0.000 C 
ATOM      7  C   UNL     1       7.001  -4.504  22.590  0.00  0.00    +0.000 C 
ATOM      8  C   UNL     1       7.327  -4.822  24.028  0.00  0.00    +0.000 C 
ENDROOT
BRANCH   6   9
ATOM      9  C   UNL     1       6.791  -2.097  23.042  0.00  0.00    +0.000 C 
ATOM     10  O   UNL     1       6.263  -1.455  23.942  0.00  0.00    +0.000 OA
ATOM     11  N   UNL     1       7.631  -1.462  22.187  0.00  0.00    +0.000 N 
ATOM     12  C   UNL     1       7.056  -0.804  21.019  0.00  0.00    +0.000 C 
ATOM     13  C   UNL     1       8.180  -0.091  20.269  0.00  0.00    +0.000 C 
ATOM     14  C   UNL     1       9.117   0.557  21.276  0.00  0.00    +0.000 C 
ATOM     15  C   UNL     1       9.863  -0.493  22.065  0.00  0.00    +0.000 C 
ATOM     16  C   UNL     1       9.045  -1.758  22.213  0.00  0.00    +0.000 C 
ENDBRANCH   6   9
BRANCH   1  18
ATOM     17 CL   UNL     1       4.604  -7.048  24.692  0.00  0.00    +0.000 Cl
ATOM     18  C   UNL     1       5.217  -6.541  26.291  0.00  0.00    +0.000 C 
ENDBRANCH   1  18
TORSDOF 2
ENDMDL
MODEL 3
REMARK VINA RESULT:      -5.9      3.360      5.073
REMARK  Name = 
REMARK  2 active torsions:
REMARK  status: ('A' for Active; 'I' for Inactive)
REMARK    1  A    between atoms: C_2  and  C_3
REMARK    2  A    between atoms: C_8  and  C_11
REMARK                            x       y       z     vdW  Elec       q    Type
REMARK                         _______ _______ _______ _____ _____    ______ ____
ROOT
ATOM      1  C   UNL     1       8.651   1.200  24.463  0.00  0.00    +0.000 C 
ATOM      2  O   UNL     1       8.201   1.074  25.593  0.00  0.00    +0.000 OA
ATOM      3  N   UNL     1       8.751   0.071  23.680  0.00  0.00    +0.000 N 
ATOM      4  C   UNL     1       9.587  -1.002  24.207  0.00  0.00    +0.000 C 
ATOM      5  C   UNL     1      10.016  -1.906  23.059  0.00  0.00    +0.000 C 
ATOM      6  C   UNL     1       8.780  -2.407  22.330  0.00  0.00    +0.000 C 
ATOM      7  C   UNL     1       7.992  -1.250  21.770  0.00  0.00    +0.000 C 
ATOM      8  C   UNL     1       7.619  -0.253  22.838  0.00  0.00    +0.000 C 
ENDROOT
BRANCH   6   9
ATOM      9  C   UNL     1       7.916  -3.141  23.338  0.00  0.00    +0.000 C 
ATOM     10  O   UNL     1       8.389  -3.472  24.419  0.00  0.00    +0.000 OA
ATOM     11  N   UNL     1       6.912  -3.883  22.806  0.00  0.00    +0.000 N 
ATOM     12  C   UNL     1       7.267  -5.042  21.996  0.00  0.00    +0.000 C 
ATOM     13  C   UNL     1       5.980  -5.758  21.591  0.00  0.00    +0.000 C 
ATOM     14  C   UNL     1       5.024  -5.766  22.773  0.00  0.00    +0.000 C 
ATOM     15  C   UNL     1       4.540  -4.368  23.080  0.00  0.00    +0.000 C 
ATOM     16  C   UNL     1       5.580  -3.331  22.713  0.00  0.00    +0.000 C 
ENDBRANCH   6   9
BRANCH   1  18
ATOM     17 CL   UNL     1      10.235   2.112  22.483  0.00  0.00    +0.000 Cl
ATOM     18  C   UNL     1       9.766   2.206  24.204  0.00  0.00    +0.000 C 
ENDBRANCH   1  18
TORSDOF 2
ENDMDL
MODEL 4
REMARK VINA RESULT:      -5.8      3.475      5.494
REMARK  Name = 
REMARK  2 active torsions:
REMARK  status: ('A' for Active; 'I' for Inactive)
REMARK    1  A    between atoms: C_2  and  C_3
REMARK    2  A    between atoms: C_8  and  C_11
REMARK                            x       y       z     vdW  Elec       q    Type
REMARK                         _______ _______ _______ _____ _____    ______ ____
ROOT
ATOM      1  C   UNL     1      10.124   2.010  23.959  0.00  0.00    +0.000 C 
ATOM      2  O   UNL     1      11.166   1.459  24.287  0.00  0.00    +0.000 OA
ATOM      3  N   UNL     1       9.202   1.271  23.250  0.00  0.00    +0.000 N 
ATOM      4  C   UNL     1       9.658   0.730  21.975  0.00  0.00    +0.000 C 
ATOM      5  C   UNL     1       8.447   0.420  21.105  0.00  0.00    +0.000 C 
ATOM      6  C   UNL     1       7.519  -0.517  21.860  0.00  0.00    +0.000 C 
ATOM      7  C   UNL     1       7.047   0.124  23.140  0.00  0.00    +0.000 C 
ATOM      8  C   UNL     1       8.200   0.557  24.012  0.00  0.00    +0.000 C 
ENDROOT
BRANCH   6   9
ATOM      9  C   UNL     1       8.306  -1.768  22.204  0.00  0.00    +0.000 C 
ATOM     10  O   UNL     1       9.373  -1.988  21.645  0.00  0.00    +0.000 OA
ATOM     11  N   UNL     1       7.562  -2.817  22.636  0.00  0.00    +0.000 N 
ATOM     12  C   UNL     1       6.638  -3.440  21.696  0.00  0.00    +0.000 C 
ATOM     13  C   UNL     1       5.991  -4.641  22.383  0.00  0.00    +0.000 C 
ATOM     14  C   UNL     1       7.044  -5.372  23.200  0.00  0.00    +0.000 C 
ATOM     15  C   UNL     1       7.494  -4.528  24.370  0.00  0.00    +0.000 C 
ATOM     16  C   UNL     1       7.401  -3.051  24.053  0.00  0.00    +0.000 C 
ENDBRANCH   6   9
BRANCH   1  18
ATOM     17 CL   UNL     1      11.833   3.982  23.288  0.00  0.00    +0.000 Cl
ATOM     18  C   UNL     1      10.141   3.482  23.563  0.00  0.00    +0.000 C 
ENDBRANCH   1  18
TORSDOF 2
ENDMDL
MODEL 5
REMARK VINA RESULT:      -5.8      2.514      3.504
REMARK  Name = 
REMARK  2 active torsions:
REMARK  status: ('A' for Active; 'I' for Inactive)
REMARK    1  A    between atoms: C_2  and  C_3
REMARK    2  A    between atoms: C_8  and  C_11
REMARK                            x       y       z     vdW  Elec       q    Type
REMARK                         _______ _______ _______ _____ _____    ______ ____
ROOT
ATOM      1  C   UNL     1       6.123  -5.018  22.768  0.00  0.00    +0.000 C 
ATOM      2  O   UNL     1       6.575  -5.208  21.647  0.00  0.00    +0.000 OA
ATOM      3  N   UNL     1       6.841  -4.210  23.622  0.00  0.00    +0.000 N 
ATOM      4  C   UNL     1       8.199  -4.646  23.927  0.00  0.00    +0.000 C 
ATOM      5  C   UNL     1       8.651  -3.994  25.226  0.00  0.00    +0.000 C 
ATOM      6  C   UNL     1       8.517  -2.485  25.099  0.00  0.00    +0.000 C 
ATOM      7  C   UNL     1       7.082  -2.102  24.835  0.00  0.00    +0.000 C 
ATOM      8  C   UNL     1       6.529  -2.797  23.616  0.00  0.00    +0.000 C 
ENDROOT
BRANCH   6   9
ATOM      9  C   UNL     1       9.362  -2.044  23.918  0.00  0.00    +0.000 C 
ATOM     10  O   UNL     1      10.298  -2.742  23.547  0.00  0.00    +0.000 OA
ATOM     11  N   UNL     1       9.422  -0.704  23.719  0.00  0.00    +0.000 N 
ATOM     12  C   UNL     1      10.085   0.113  24.729  0.00  0.00    +0.000 C 
ATOM     13  C   UNL     1      10.103   1.560  24.240  0.00  0.00    +0.000 C 
ATOM     14  C   UNL     1      10.409   1.577  22.751  0.00  0.00    +0.000 C 
ATOM     15  C   UNL     1       9.267   0.978  21.963  0.00  0.00    +0.000 C 
ATOM     16  C   UNL     1       8.536  -0.077  22.766  0.00  0.00    +0.000 C 
ENDBRANCH   6   9
BRANCH   1  18
ATOM     17 CL   UNL     1       5.003  -5.610  25.146  0.00  0.00    +0.000 Cl
ATOM     18  C   UNL     1       5.391  -6.145  23.487  0.00  0.00    +0.000 C 
ENDBRANCH   1  18
TORSDOF 2
ENDMDL
MODEL 6
REMARK VINA RESULT:      -5.8      3.401      5.851
REMARK  Name = 
REMARK  2 active torsions:
REMARK  status: ('A' for Active; 'I' for Inactive)
REMARK    1  A    between atoms: C_2  and  C_3
REMARK    2  A    between atoms: C_8  and  C_11
REMARK                            x       y       z     vdW  Elec       q    Type
REMARK                         _______ _______ _______ _____ _____    ______ ____
ROOT
ATOM      1  C   UNL     1      10.141   0.855  24.165  0.00  0.00    +0.000 C 
ATOM      2  O   UNL     1      10.974   0.608  25.026  0.00  0.00    +0.000 OA
ATOM      3  N   UNL     1       9.356  -0.183  23.713  0.00  0.00    +0.000 N 
ATOM      4  C   UNL     1      10.065  -1.309  23.115  0.00  0.00    +0.000 C 
ATOM      5  C   UNL     1       9.105  -2.084  22.224  0.00  0.00    +0.000 C 
ATOM      6  C   UNL     1       7.893  -2.501  23.042  0.00  0.00    +0.000 C 
ATOM      7  C   UNL     1       7.180  -1.288  23.586  0.00  0.00    +0.000 C 
ATOM      8  C   UNL     1       8.101  -0.411  24.397  0.00  0.00    +0.000 C 
ENDROOT
BRANCH   6   9
ATOM      9  C   UNL     1       8.387  -3.338  24.207  0.00  0.00    +0.000 C 
ATOM     10  O   UNL     1       9.510  -3.827  24.171  0.00  0.00    +0.000 OA
ATOM     11  N   UNL     1       7.418  -3.967  24.918  0.00  0.00    +0.000 N 
ATOM     12  C   UNL     1       6.651  -5.016  24.257  0.00  0.00    +0.000 C 
ATOM     13  C   UNL     1       5.695  -5.628  25.279  0.00  0.00    +0.000 C 
ATOM     14  C   UNL     1       6.414  -5.767  26.611  0.00  0.00    +0.000 C 
ATOM     15  C   UNL     1       6.705  -4.409  27.206  0.00  0.00    +0.000 C 
ATOM     16  C   UNL     1       6.906  -3.366  26.128  0.00  0.00    +0.000 C 
ENDBRANCH   6   9
BRANCH   1  18
ATOM     17 CL   UNL     1       9.228   1.747  21.793  0.00  0.00    +0.000 Cl
ATOM     18  C   UNL     1      10.456   1.881  23.082  0.00  0.00    +0.000 C 
ENDBRANCH   1  18
TORSDOF 2
ENDMDL
MODEL 7
REMARK VINA RESULT:      -5.7      4.013      5.763
REMARK  Name = 
REMARK  2 active torsions:
REMARK  status: ('A' for Active; 'I' for Inactive)
REMARK    1  A    between atoms: C_2  and  C_3
REMARK    2  A    between atoms: C_8  and  C_11
REMARK                            x       y       z     vdW  Elec       q    Type
REMARK                         _______ _______ _______ _____ _____    ______ ____
ROOT
ATOM      1  C   UNL     1       9.814   3.208  23.223  0.00  0.00    +0.000 C 
ATOM      2  O   UNL     1       8.735   3.698  23.524  0.00  0.00    +0.000 OA
ATOM      3  N   UNL     1       9.945   1.839  23.310  0.00  0.00    +0.000 N 
ATOM      4  C   UNL     1       9.721   1.256  24.628  0.00  0.00    +0.000 C 
ATOM      5  C   UNL     1      10.393  -0.108  24.689  0.00  0.00    +0.000 C 
ATOM      6  C   UNL     1       9.872  -0.972  23.552  0.00  0.00    +0.000 C 
ATOM      7  C   UNL     1      10.182  -0.336  22.221  0.00  0.00    +0.000 C 
ATOM      8  C   UNL     1       9.636   1.067  22.125  0.00  0.00    +0.000 C 
ENDROOT
BRANCH   6   9
ATOM      9  C   UNL     1       8.365  -1.073  23.702  0.00  0.00    +0.000 C 
ATOM     10  O   UNL     1       7.829  -0.678  24.730  0.00  0.00    +0.000 OA
ATOM     11  N   UNL     1       7.781  -2.077  23.000  0.00  0.00    +0.000 N 
ATOM     12  C   UNL     1       8.092  -3.451  23.375  0.00  0.00    +0.000 C 
ATOM     13  C   UNL     1       7.252  -4.387  22.508  0.00  0.00    +0.000 C 
ATOM     14  C   UNL     1       5.855  -3.807  22.361  0.00  0.00    +0.000 C 
ATOM     15  C   UNL     1       5.886  -2.539  21.540  0.00  0.00    +0.000 C 
ATOM     16  C   UNL     1       7.200  -1.806  21.705  0.00  0.00    +0.000 C 
ENDBRANCH   6   9
BRANCH   1  18
ATOM     17 CL   UNL     1      10.745   5.701  23.644  0.00  0.00    +0.000 Cl
ATOM     18  C   UNL     1      11.101   3.953  23.557  0.00  0.00    +0.000 C 
ENDBRANCH   1  18
TORSDOF 2
ENDMDL
MODEL 8
REMARK VINA RESULT:      -5.6      2.240      3.066
REMARK  Name = 
REMARK  2 active torsions:
REMARK  status: ('A' for Active; 'I' for Inactive)
REMARK    1  A    between atoms: C_2  and  C_3
REMARK    2  A    between atoms: C_8  and  C_11
REMARK                            x       y       z     vdW  Elec       q    Type
REMARK                         _______ _______ _______ _____ _____    ______ ____
ROOT
ATOM      1  C   UNL     1       5.004  -4.927  25.801  0.00  0.00    +0.000 C 
ATOM      2  O   UNL     1       4.078  -4.982  25.003  0.00  0.00    +0.000 OA
ATOM      3  N   UNL     1       6.219  -4.463  25.345  0.00  0.00    +0.000 N 
ATOM      4  C   UNL     1       6.823  -5.217  24.253  0.00  0.00    +0.000 C 
ATOM      5  C   UNL     1       8.319  -4.936  24.223  0.00  0.00    +0.000 C 
ATOM      6  C   UNL     1       8.542  -3.436  24.116  0.00  0.00    +0.000 C 
ATOM      7  C   UNL     1       7.937  -2.726  25.300  0.00  0.00    +0.000 C 
ATOM      8  C   UNL     1       6.470  -3.043  25.458  0.00  0.00    +0.000 C 
ENDROOT
BRANCH   6   9
ATOM      9  C   UNL     1       7.848  -2.955  22.855  0.00  0.00    +0.000 C 
ATOM     10  O   UNL     1       7.488  -3.767  22.011  0.00  0.00    +0.000 OA
ATOM     11  N   UNL     1       8.173  -1.698  22.460  0.00  0.00    +0.000 N 
ATOM     12  C   UNL     1       9.540  -1.447  22.020  0.00  0.00    +0.000 C 
ATOM     13  C   UNL     1       9.632   0.002  21.545  0.00  0.00    +0.000 C 
ATOM     14  C   UNL     1       8.376   0.351  20.765  0.00  0.00    +0.000 C 
ATOM     15  C   UNL     1       7.171   0.380  21.676  0.00  0.00    +0.000 C 
ATOM     16  C   UNL     1       7.328  -0.586  22.831  0.00  0.00    +0.000 C 
ENDBRANCH   6   9
BRANCH   1  18
ATOM     17 CL   UNL     1       6.576  -5.636  27.871  0.00  0.00    +0.000 Cl
ATOM     18  C   UNL     1       5.139  -6.000  26.876  0.00  0.00    +0.000 C 
ENDBRANCH   1  18
TORSDOF 2
ENDMDL
MODEL 9
REMARK VINA RESULT:      -5.5      2.771      3.610
REMARK  Name = 
REMARK  2 active torsions:
REMARK  status: ('A' for Active; 'I' for Inactive)
REMARK    1  A    between atoms: C_2  and  C_3
REMARK    2  A    between atoms: C_8  and  C_11
REMARK                            x       y       z     vdW  Elec       q    Type
REMARK                         _______ _______ _______ _____ _____    ______ ____
ROOT
ATOM      1  C   UNL     1       4.048  -5.771  23.907  0.00  0.00    +0.000 C 
ATOM      2  O   UNL     1       3.426  -5.714  22.855  0.00  0.00    +0.000 OA
ATOM      3  N   UNL     1       5.264  -5.127  23.971  0.00  0.00    +0.000 N 
ATOM      4  C   UNL     1       6.273  -5.567  23.014  0.00  0.00    +0.000 C 
ATOM      5  C   UNL     1       7.651  -5.175  23.529  0.00  0.00    +0.000 C 
ATOM      6  C   UNL     1       7.678  -3.677  23.787  0.00  0.00    +0.000 C 
ATOM      7  C   UNL     1       6.647  -3.301  24.821  0.00  0.00    +0.000 C 
ATOM      8  C   UNL     1       5.263  -3.754  24.427  0.00  0.00    +0.000 C 
ENDROOT
BRANCH   6   9
ATOM      9  C   UNL     1       7.338  -2.977  22.485  0.00  0.00    +0.000 C 
ATOM     10  O   UNL     1       7.073  -3.640  21.489  0.00  0.00    +0.000 OA
ATOM     11  N   UNL     1       7.893  -1.749  22.327  0.00  0.00    +0.000 N 
ATOM     12  C   UNL     1       9.344  -1.659  22.206  0.00  0.00    +0.000 C 
ATOM     13  C   UNL     1       9.714  -0.200  21.949  0.00  0.00    +0.000 C 
ATOM     14  C   UNL     1       8.709   0.405  20.983  0.00  0.00    +0.000 C 
ATOM     15  C   UNL     1       7.348   0.521  21.629  0.00  0.00    +0.000 C 
ATOM     16  C   UNL     1       7.132  -0.567  22.659  0.00  0.00    +0.000 C 
ENDBRANCH   6   9
BRANCH   1  18
ATOM     17 CL   UNL     1       4.953  -6.788  26.232  0.00  0.00    +0.000 Cl
ATOM     18  C   UNL     1       4.003  -7.046  24.742  0.00  0.00    +0.000 C 
ENDBRANCH   1  18
TORSDOF 2
ENDMDL
