MODEL 1
REMARK VINA RESULT:      -5.9      0.000      0.000
REMARK  Name = 
REMARK  2 active torsions:
REMARK  status: ('A' for Active; 'I' for Inactive)
REMARK    1  A    between atoms: C_5  and  C_8
REMARK    2  A    between atoms: C_14  and  C_16
REMARK                            x       y       z     vdW  Elec       q    Type
REMARK                         _______ _______ _______ _____ _____    ______ ____
ROOT
ATOM      1  C   UNL     1       9.239  -0.710  21.367  0.00  0.00    +0.000 C 
ATOM      2  C   UNL     1      10.076   0.136  22.272  0.00  0.00    +0.000 C 
ATOM      3  N   UNL     1       9.418   0.025  23.610  0.00  0.00    +0.000 N 
ATOM      4  C   UNL     1       8.831  -1.203  23.981  0.00  0.00    +0.000 C 
ATOM      5  C   UNL     1       8.736  -2.266  22.964  0.00  0.00    +0.000 C 
ATOM      6  O   UNL     1       9.379  -2.044  21.780  0.00  0.00    +0.000 OA
ATOM      7  C   UNL     1       8.865   1.242  23.982  0.00  0.00    +0.000 C 
ATOM      8  O   UNL     1       9.714   2.160  24.058  0.00  0.00    +0.000 OA
ENDROOT
BRANCH   1  13
ATOM      9  F   UNL     1       5.112   0.158  18.502  0.00  0.00    +0.000 F 
ATOM     10  C   UNL     1       6.153  -0.683  18.671  0.00  0.00    +0.000 A 
ATOM     11  C   UNL     1       7.306   0.489  18.820  0.00  0.00    +0.000 A 
ATOM     12  C   UNL     1       7.520   0.695  20.303  0.00  0.00    +0.000 A 
ATOM     13  C   UNL     1       7.765  -0.355  21.395  0.00  0.00    +0.000 A 
ATOM     14  C   UNL     1       6.651  -1.415  21.304  0.00  0.00    +0.000 A 
ATOM     15  C   UNL     1       5.907  -1.385  19.937  0.00  0.00    +0.000 A 
ENDBRANCH   1  13
BRANCH   7  16
ATOM     16  C   UNL     1       7.611   1.569  23.148  0.00  0.00    +0.000 C 
ATOM     17 CL   UNL     1       7.679   3.302  22.717  0.00  0.00    +0.000 Cl
ENDBRANCH   7  16
TORSDOF 2
ENDMDL
MODEL 2
REMARK VINA RESULT:      -5.7      3.164      4.608
REMARK  Name = 
REMARK  2 active torsions:
REMARK  status: ('A' for Active; 'I' for Inactive)
REMARK    1  A    between atoms: C_5  and  C_8
REMARK    2  A    between atoms: C_14  and  C_16
REMARK                            x       y       z     vdW  Elec       q    Type
REMARK                         _______ _______ _______ _____ _____    ______ ____
ROOT
ATOM      1  C   UNL     1       9.572   0.030  21.779  0.00  0.00    +0.000 C 
ATOM      2  C   UNL     1      10.098  -1.352  22.002  0.00  0.00    +0.000 C 
ATOM      3  N   UNL     1       8.931  -2.120  22.533  0.00  0.00    +0.000 N 
ATOM      4  C   UNL     1       7.641  -1.826  22.044  0.00  0.00    +0.000 C 
ATOM      5  C   UNL     1       7.480  -0.655  21.163  0.00  0.00    +0.000 C 
ATOM      6  O   UNL     1       8.624  -0.035  20.748  0.00  0.00    +0.000 OA
ATOM      7  C   UNL     1       9.147  -2.480  23.856  0.00  0.00    +0.000 C 
ATOM      8  O   UNL     1      10.165  -3.193  24.007  0.00  0.00    +0.000 OA
ENDROOT
BRANCH   1  13
ATOM      9  F   UNL     1       9.313   4.140  24.786  0.00  0.00    +0.000 F 
ATOM     10  C   UNL     1       9.335   3.743  23.496  0.00  0.00    +0.000 A 
ATOM     11  C   UNL     1      10.599   2.693  23.655  0.00  0.00    +0.000 A 
ATOM     12  C   UNL     1       9.994   1.319  23.834  0.00  0.00    +0.000 A 
ATOM     13  C   UNL     1       8.905   0.630  23.002  0.00  0.00    +0.000 A 
ATOM     14  C   UNL     1       7.695   1.580  22.910  0.00  0.00    +0.000 A 
ATOM     15  C   UNL     1       8.062   3.051  23.263  0.00  0.00    +0.000 A 
ENDBRANCH   1  13
BRANCH   7  16
ATOM     16  C   UNL     1       9.051  -1.259  24.793  0.00  0.00    +0.000 C 
ATOM     17 CL   UNL     1       8.532  -1.845  26.399  0.00  0.00    +0.000 Cl
ENDBRANCH   7  16
TORSDOF 2
ENDMDL
MODEL 3
REMARK VINA RESULT:      -5.7      3.493      4.818
REMARK  Name = 
REMARK  2 active torsions:
REMARK  status: ('A' for Active; 'I' for Inactive)
REMARK    1  A    between atoms: C_5  and  C_8
REMARK    2  A    between atoms: C_14  and  C_16
REMARK                            x       y       z     vdW  Elec       q    Type
REMARK                         _______ _______ _______ _____ _____    ______ ____
ROOT
ATOM      1  C   UNL     1       7.242  -1.939  23.930  0.00  0.00    +0.000 C 
ATOM      2  C   UNL     1       6.383  -3.058  24.427  0.00  0.00    +0.000 C 
ATOM      3  N   UNL     1       7.263  -4.265  24.368  0.00  0.00    +0.000 N 
ATOM      4  C   UNL     1       8.636  -4.122  24.658  0.00  0.00    +0.000 C 
ATOM      5  C   UNL     1       9.174  -2.761  24.832  0.00  0.00    +0.000 C 
ATOM      6  O   UNL     1       8.268  -1.741  24.866  0.00  0.00    +0.000 OA
ATOM      7  C   UNL     1       6.807  -5.152  23.403  0.00  0.00    +0.000 C 
ATOM      8  O   UNL     1       5.639  -5.550  23.620  0.00  0.00    +0.000 OA
ENDROOT
BRANCH   1  13
ATOM      9  F   UNL     1       8.166  -0.018  19.298  0.00  0.00    +0.000 F 
ATOM     10  C   UNL     1       8.211   0.268  20.616  0.00  0.00    +0.000 A 
ATOM     11  C   UNL     1       6.708  -0.311  20.976  0.00  0.00    +0.000 A 
ATOM     12  C   UNL     1       6.904  -1.716  21.501  0.00  0.00    +0.000 A 
ATOM     13  C   UNL     1       7.875  -2.213  22.580  0.00  0.00    +0.000 A 
ATOM     14  C   UNL     1       9.292  -1.733  22.211  0.00  0.00    +0.000 A 
ATOM     15  C   UNL     1       9.279  -0.569  21.177  0.00  0.00    +0.000 A 
ENDBRANCH   1  13
BRANCH   7  16
ATOM     16  C   UNL     1       7.071  -4.619  21.981  0.00  0.00    +0.000 C 
ATOM     17 CL   UNL     1       6.211  -5.685  20.832  0.00  0.00    +0.000 Cl
ENDBRANCH   7  16
TORSDOF 2
ENDMDL
MODEL 4
REMARK VINA RESULT:      -5.4      3.111      4.634
REMARK  Name = 
REMARK  2 active torsions:
REMARK  status: ('A' for Active; 'I' for Inactive)
REMARK    1  A    between atoms: C_5  and  C_8
REMARK    2  A    between atoms: C_14  and  C_16
REMARK                            x       y       z     vdW  Elec       q    Type
REMARK                         _______ _______ _______ _____ _____    ______ ____
ROOT
ATOM      1  C   UNL     1       9.512  -2.121  23.216  0.00  0.00    +0.000 C 
ATOM      2  C   UNL     1       9.800  -1.386  21.947  0.00  0.00    +0.000 C 
ATOM      3  N   UNL     1       9.008  -0.123  22.053  0.00  0.00    +0.000 N 
ATOM      4  C   UNL     1       8.866   0.489  23.317  0.00  0.00    +0.000 C 
ATOM      5  C   UNL     1       9.355  -0.238  24.502  0.00  0.00    +0.000 C 
ATOM      6  O   UNL     1      10.064  -1.382  24.272  0.00  0.00    +0.000 OA
ATOM      7  C   UNL     1       7.985  -0.109  21.115  0.00  0.00    +0.000 C 
ATOM      8  O   UNL     1       8.402  -0.192  19.938  0.00  0.00    +0.000 OA
ENDROOT
BRANCH   1  13
ATOM      9  F   UNL     1       5.897  -5.496  24.458  0.00  0.00    +0.000 F 
ATOM     10  C   UNL     1       7.139  -5.075  24.777  0.00  0.00    +0.000 A 
ATOM     11  C   UNL     1       7.712  -5.024  23.230  0.00  0.00    +0.000 A 
ATOM     12  C   UNL     1       7.584  -3.588  22.773  0.00  0.00    +0.000 A 
ATOM     13  C   UNL     1       8.031  -2.306  23.488  0.00  0.00    +0.000 A 
ATOM     14  C   UNL     1       7.440  -2.317  24.910  0.00  0.00    +0.000 A 
ATOM     15  C   UNL     1       6.977  -3.735  25.355  0.00  0.00    +0.000 A 
ENDBRANCH   1  13
BRANCH   7  16
ATOM     16  C   UNL     1       6.866  -1.102  21.491  0.00  0.00    +0.000 C 
ATOM     17 CL   UNL     1       5.926  -1.448  20.010  0.00  0.00    +0.000 Cl
ENDBRANCH   7  16
TORSDOF 2
ENDMDL
MODEL 5
REMARK VINA RESULT:      -5.4      3.693      4.909
REMARK  Name = 
REMARK  2 active torsions:
REMARK  status: ('A' for Active; 'I' for Inactive)
REMARK    1  A    between atoms: C_5  and  C_8
REMARK    2  A    between atoms: C_14  and  C_16
REMARK                            x       y       z     vdW  Elec       q    Type
REMARK                         _______ _______ _______ _____ _____    ______ ____
ROOT
ATOM      1  C   UNL     1       9.549  -2.065  23.484  0.00  0.00    +0.000 C 
ATOM      2  C   UNL     1       9.633  -3.277  24.355  0.00  0.00    +0.000 C 
ATOM      3  N   UNL     1       8.228  -3.519  24.804  0.00  0.00    +0.000 N 
ATOM      4  C   UNL     1       7.170  -3.249  23.910  0.00  0.00    +0.000 C 
ATOM      5  C   UNL     1       7.488  -2.575  22.638  0.00  0.00    +0.000 C 
ATOM      6  O   UNL     1       8.811  -2.410  22.343  0.00  0.00    +0.000 OA
ATOM      7  C   UNL     1       8.108  -3.294  26.168  0.00  0.00    +0.000 C 
ATOM      8  O   UNL     1       8.852  -4.033  26.852  0.00  0.00    +0.000 OA
ENDROOT
BRANCH   1  13
ATOM      9  F   UNL     1       9.891   2.929  24.457  0.00  0.00    +0.000 F 
ATOM     10  C   UNL     1      10.022   2.005  23.481  0.00  0.00    +0.000 A 
ATOM     11  C   UNL     1      10.917   0.938  24.366  0.00  0.00    +0.000 A 
ATOM     12  C   UNL     1       9.948  -0.092  24.903  0.00  0.00    +0.000 A 
ATOM     13  C   UNL     1       8.870  -0.884  24.151  0.00  0.00    +0.000 A 
ATOM     14  C   UNL     1       7.989   0.116  23.378  0.00  0.00    +0.000 A 
ATOM     15  C   UNL     1       8.668   1.506  23.210  0.00  0.00    +0.000 A 
ENDBRANCH   1  13
BRANCH   7  16
ATOM     16  C   UNL     1       8.188  -1.790  26.498  0.00  0.00    +0.000 C 
ATOM     17 CL   UNL     1       6.538  -1.233  26.903  0.00  0.00    +0.000 Cl
ENDBRANCH   7  16
TORSDOF 2
ENDMDL
MODEL 6
REMARK VINA RESULT:      -5.4      4.373      5.792
REMARK  Name = 
REMARK  2 active torsions:
REMARK  status: ('A' for Active; 'I' for Inactive)
REMARK    1  A    between atoms: C_5  and  C_8
REMARK    2  A    between atoms: C_14  and  C_16
REMARK                            x       y       z     vdW  Elec       q    Type
REMARK                         _______ _______ _______ _____ _____    ______ ____
ROOT
ATOM      1  C   UNL     1       7.464  -1.925  23.041  0.00  0.00    +0.000 C 
ATOM      2  C   UNL     1       7.344  -3.328  22.538  0.00  0.00    +0.000 C 
ATOM      3  N   UNL     1       6.938  -4.125  23.736  0.00  0.00    +0.000 N 
ATOM      4  C   UNL     1       6.072  -3.539  24.684  0.00  0.00    +0.000 C 
ATOM      5  C   UNL     1       5.750  -2.108  24.542  0.00  0.00    +0.000 C 
ATOM      6  O   UNL     1       6.180  -1.490  23.403  0.00  0.00    +0.000 OA
ATOM      7  C   UNL     1       7.955  -4.991  24.111  0.00  0.00    +0.000 C 
ATOM      8  O   UNL     1       8.262  -5.802  23.208  0.00  0.00    +0.000 OA
ENDROOT
BRANCH   1  13
ATOM      9  F   UNL     1      11.419   0.622  25.008  0.00  0.00    +0.000 F 
ATOM     10  C   UNL     1      10.249   0.779  24.354  0.00  0.00    +0.000 A 
ATOM     11  C   UNL     1      10.514  -0.401  23.229  0.00  0.00    +0.000 A 
ATOM     12  C   UNL     1       9.809  -1.640  23.734  0.00  0.00    +0.000 A 
ATOM     13  C   UNL     1       8.371  -1.787  24.248  0.00  0.00    +0.000 A 
ATOM     14  C   UNL     1       8.142  -0.733  25.347  0.00  0.00    +0.000 A 
ATOM     15  C   UNL     1       9.198   0.410  25.310  0.00  0.00    +0.000 A 
ENDBRANCH   1  13
BRANCH   7  16
ATOM     16  C   UNL     1       9.136  -4.230  24.745  0.00  0.00    +0.000 C 
ATOM     17 CL   UNL     1       9.118  -4.562  26.501  0.00  0.00    +0.000 Cl
ENDBRANCH   7  16
TORSDOF 2
ENDMDL
MODEL 7
REMARK VINA RESULT:      -5.3      4.631      6.247
REMARK  Name = 
REMARK  2 active torsions:
REMARK  status: ('A' for Active; 'I' for Inactive)
REMARK    1  A    between atoms: C_5  and  C_8
REMARK    2  A    between atoms: C_14  and  C_16
REMARK                            x       y       z     vdW  Elec       q    Type
REMARK                         _______ _______ _______ _____ _____    ______ ____
ROOT
ATOM      1  C   UNL     1       6.396  -3.065  24.617  0.00  0.00    +0.000 C 
ATOM      2  C   UNL     1       5.150  -3.831  24.306  0.00  0.00    +0.000 C 
ATOM      3  N   UNL     1       5.508  -5.258  24.566  0.00  0.00    +0.000 N 
ATOM      4  C   UNL     1       6.386  -5.559  25.629  0.00  0.00    +0.000 C 
ATOM      5  C   UNL     1       7.048  -4.440  26.323  0.00  0.00    +0.000 C 
ATOM      6  O   UNL     1       6.634  -3.180  25.995  0.00  0.00    +0.000 OA
ATOM      7  C   UNL     1       5.521  -5.980  23.380  0.00  0.00    +0.000 C 
ATOM      8  O   UNL     1       4.415  -5.972  22.793  0.00  0.00    +0.000 OA
ENDROOT
BRANCH   1  13
ATOM      9  F   UNL     1      10.443  -1.690  21.838  0.00  0.00    +0.000 F 
ATOM     10  C   UNL     1       9.746  -1.391  22.954  0.00  0.00    +0.000 A 
ATOM     11  C   UNL     1       8.253  -1.447  22.251  0.00  0.00    +0.000 A 
ATOM     12  C   UNL     1       7.695  -2.823  22.540  0.00  0.00    +0.000 A 
ATOM     13  C   UNL     1       7.619  -3.570  23.878  0.00  0.00    +0.000 A 
ATOM     14  C   UNL     1       9.027  -3.580  24.505  0.00  0.00    +0.000 A 
ATOM     15  C   UNL     1       9.967  -2.507  23.881  0.00  0.00    +0.000 A 
ENDBRANCH   1  13
BRANCH   7  16
ATOM     16  C   UNL     1       6.735  -5.605  22.508  0.00  0.00    +0.000 C 
ATOM     17 CL   UNL     1       6.225  -5.693  20.797  0.00  0.00    +0.000 Cl
ENDBRANCH   7  16
TORSDOF 2
ENDMDL
MODEL 8
REMARK VINA RESULT:      -5.3      3.540      4.647
REMARK  Name = 
REMARK  2 active torsions:
REMARK  status: ('A' for Active; 'I' for Inactive)
REMARK    1  A    between atoms: C_5  and  C_8
REMARK    2  A    between atoms: C_14  and  C_16
REMARK                            x       y       z     vdW  Elec       q    Type
REMARK                         _______ _______ _______ _____ _____    ______ ____
ROOT
ATOM      1  C   UNL     1       7.727  -3.548  23.137  0.00  0.00    +0.000 C 
ATOM      2  C   UNL     1       7.920  -4.511  24.264  0.00  0.00    +0.000 C 
ATOM      3  N   UNL     1       7.014  -4.015  25.344  0.00  0.00    +0.000 N 
ATOM      4  C   UNL     1       5.775  -3.442  24.986  0.00  0.00    +0.000 C 
ATOM      5  C   UNL     1       5.508  -3.196  23.557  0.00  0.00    +0.000 C 
ATOM      6  O   UNL     1       6.414  -3.698  22.667  0.00  0.00    +0.000 OA
ATOM      7  C   UNL     1       7.753  -3.546  26.422  0.00  0.00    +0.000 C 
ATOM      8  O   UNL     1       8.491  -4.423  26.925  0.00  0.00    +0.000 OA
ENDROOT
BRANCH   1  13
ATOM      9  F   UNL     1      10.034   0.829  21.902  0.00  0.00    +0.000 F 
ATOM     10  C   UNL     1       9.315  -0.195  21.395  0.00  0.00    +0.000 A 
ATOM     11  C   UNL     1      10.180  -1.397  22.124  0.00  0.00    +0.000 A 
ATOM     12  C   UNL     1       9.419  -1.775  23.376  0.00  0.00    +0.000 A 
ATOM     13  C   UNL     1       7.928  -2.099  23.535  0.00  0.00    +0.000 A 
ATOM     14  C   UNL     1       7.116  -0.944  22.917  0.00  0.00    +0.000 A 
ATOM     15  C   UNL     1       7.966  -0.061  21.958  0.00  0.00    +0.000 A 
ENDBRANCH   1  13
BRANCH   7  16
ATOM     16  C   UNL     1       8.447  -2.210  26.087  0.00  0.00    +0.000 C 
ATOM     17 CL   UNL     1       7.576  -0.912  26.954  0.00  0.00    +0.000 Cl
ENDBRANCH   7  16
TORSDOF 2
ENDMDL
MODEL 9
REMARK VINA RESULT:      -5.3      3.303      4.475
REMARK  Name = 
REMARK  2 active torsions:
REMARK  status: ('A' for Active; 'I' for Inactive)
REMARK    1  A    between atoms: C_5  and  C_8
REMARK    2  A    between atoms: C_14  and  C_16
REMARK                            x       y       z     vdW  Elec       q    Type
REMARK                         _______ _______ _______ _____ _____    ______ ____
ROOT
ATOM      1  C   UNL     1       8.917  -3.733  24.311  0.00  0.00    +0.000 C 
ATOM      2  C   UNL     1       9.951  -2.766  23.830  0.00  0.00    +0.000 C 
ATOM      3  N   UNL     1       9.371  -1.418  24.117  0.00  0.00    +0.000 N 
ATOM      4  C   UNL     1       8.595  -1.244  25.283  0.00  0.00    +0.000 C 
ATOM      5  C   UNL     1       8.243  -2.439  26.071  0.00  0.00    +0.000 C 
ATOM      6  O   UNL     1       8.837  -3.613  25.706  0.00  0.00    +0.000 OA
ATOM      7  C   UNL     1       9.075  -0.754  22.935  0.00  0.00    +0.000 C 
ATOM      8  O   UNL     1      10.080  -0.582  22.208  0.00  0.00    +0.000 OA
ENDROOT
BRANCH   1  13
ATOM      9  F   UNL     1       4.929  -5.893  21.981  0.00  0.00    +0.000 F 
ATOM     10  C   UNL     1       5.799  -6.048  23.001  0.00  0.00    +0.000 A 
ATOM     11  C   UNL     1       7.156  -5.686  22.132  0.00  0.00    +0.000 A 
ATOM     12  C   UNL     1       7.455  -4.227  22.392  0.00  0.00    +0.000 A 
ATOM     13  C   UNL     1       7.537  -3.485  23.733  0.00  0.00    +0.000 A 
ATOM     14  C   UNL     1       6.241  -3.763  24.518  0.00  0.00    +0.000 A 
ATOM     15  C   UNL     1       5.469  -5.003  23.978  0.00  0.00    +0.000 A 
ENDBRANCH   1  13
BRANCH   7  16
ATOM     16  C   UNL     1       7.850  -1.374  22.234  0.00  0.00    +0.000 C 
ATOM     17 CL   UNL     1       7.609  -0.506  20.690  0.00  0.00    +0.000 Cl
ENDBRANCH   7  16
TORSDOF 2
ENDMDL
