MODEL 1
REMARK VINA RESULT:      -6.2      0.000      0.000
REMARK  Name = 
REMARK  4 active torsions:
REMARK  status: ('A' for Active; 'I' for Inactive)
REMARK    1  A    between atoms: N_3  and  C_4
REMARK    2  A    between atoms: C_4  and  C_5
REMARK    3  A    between atoms: C_5  and  C_6
REMARK    4  A    between atoms: N_12  and  C_13
REMARK                            x       y       z     vdW  Elec       q    Type
REMARK                         _______ _______ _______ _____ _____    ______ ____
ROOT
ATOM      1  O   UNL     1       9.686  -4.674  24.684  0.00  0.00    +0.000 OA
ATOM      2  C   UNL     1       8.990  -3.790  24.206  0.00  0.00    +0.000 C 
ATOM      3  N   UNL     1       9.184  -2.512  24.521  0.00  0.00    +0.000 NA
ATOM      4  N   UNL     1       7.719  -4.021  23.867  0.00  0.00    +0.000 NA
ENDROOT
BRANCH   4   5
ATOM      5  C   UNL     1       7.217  -3.852  22.538  0.00  0.00    +0.000 C 
ATOM      6  C   UNL     1       5.891  -3.123  22.529  0.00  0.00    +0.000 C 
ATOM      7  C   UNL     1       4.807  -3.978  23.159  0.00  0.00    +0.000 C 
ATOM      8  C   UNL     1       5.384  -5.314  23.596  0.00  0.00    +0.000 C 
ATOM      9  C   UNL     1       6.002  -6.025  22.405  0.00  0.00    +0.000 C 
ATOM     10  C   UNL     1       7.106  -5.168  21.804  0.00  0.00    +0.000 C 
ENDBRANCH   4   5
BRANCH   3  11
ATOM     11  C   UNL     1       8.988  -1.426  23.622  0.00  0.00    +0.000 C 
BRANCH  11  12
ATOM     12  C   UNL     1       9.978  -1.434  22.469  0.00  0.00    +0.000 C 
BRANCH  12  13
ATOM     13  C   UNL     1       9.767  -0.271  21.573  0.00  0.00    +0.000 A 
ATOM     14  C   UNL     1       8.313  -0.409  20.813  0.00  0.00    +0.000 A 
ATOM     15  C   UNL     1       7.595   0.941  21.074  0.00  0.00    +0.000 A 
ATOM     16  N   UNL     1       7.811   2.091  21.641  0.00  0.00    +0.000 NA
ATOM     17  C   UNL     1       9.032   2.267  22.333  0.00  0.00    +0.000 A 
ATOM     18  C   UNL     1       9.933   1.088  22.147  0.00  0.00    +0.000 A 
ENDBRANCH  12  13
ENDBRANCH  11  12
ENDBRANCH   3  11
TORSDOF 4
ENDMDL
MODEL 2
REMARK VINA RESULT:      -6.0      2.246      3.337
REMARK  Name = 
REMARK  4 active torsions:
REMARK  status: ('A' for Active; 'I' for Inactive)
REMARK    1  A    between atoms: N_3  and  C_4
REMARK    2  A    between atoms: C_4  and  C_5
REMARK    3  A    between atoms: C_5  and  C_6
REMARK    4  A    between atoms: N_12  and  C_13
REMARK                            x       y       z     vdW  Elec       q    Type
REMARK                         _______ _______ _______ _____ _____    ______ ____
ROOT
ATOM      1  O   UNL     1       5.580  -3.017  20.931  0.00  0.00    +0.000 OA
ATOM      2  C   UNL     1       6.451  -2.418  21.545  0.00  0.00    +0.000 C 
ATOM      3  N   UNL     1       6.977  -1.290  21.073  0.00  0.00    +0.000 NA
ATOM      4  N   UNL     1       7.317  -3.070  22.325  0.00  0.00    +0.000 NA
ENDROOT
BRANCH   4   5
ATOM      5  C   UNL     1       7.458  -2.816  23.725  0.00  0.00    +0.000 C 
ATOM      6  C   UNL     1       8.615  -3.589  24.321  0.00  0.00    +0.000 C 
ATOM      7  C   UNL     1       8.324  -5.079  24.308  0.00  0.00    +0.000 C 
ATOM      8  C   UNL     1       6.951  -5.339  23.710  0.00  0.00    +0.000 C 
ATOM      9  C   UNL     1       5.893  -4.593  24.505  0.00  0.00    +0.000 C 
ATOM     10  C   UNL     1       6.182  -3.100  24.483  0.00  0.00    +0.000 C 
ENDBRANCH   4   5
BRANCH   3  11
ATOM     11  C   UNL     1       7.409  -0.206  21.887  0.00  0.00    +0.000 C 
BRANCH  11  12
ATOM     12  C   UNL     1       8.332   0.749  21.148  0.00  0.00    +0.000 C 
BRANCH  12  13
ATOM     13  C   UNL     1       9.702   0.719  21.717  0.00  0.00    +0.000 A 
ATOM     14  C   UNL     1      10.079   2.194  22.343  0.00  0.00    +0.000 A 
ATOM     15  C   UNL     1      10.558   1.905  23.790  0.00  0.00    +0.000 A 
ATOM     16  N   UNL     1      10.778   0.899  24.584  0.00  0.00    +0.000 NA
ATOM     17  C   UNL     1      10.453  -0.395  24.116  0.00  0.00    +0.000 A 
ATOM     18  C   UNL     1      10.030  -0.361  22.682  0.00  0.00    +0.000 A 
ENDBRANCH  12  13
ENDBRANCH  11  12
ENDBRANCH   3  11
TORSDOF 4
ENDMDL
MODEL 3
REMARK VINA RESULT:      -5.6      2.186      3.154
REMARK  Name = 
REMARK  4 active torsions:
REMARK  status: ('A' for Active; 'I' for Inactive)
REMARK    1  A    between atoms: N_3  and  C_4
REMARK    2  A    between atoms: C_4  and  C_5
REMARK    3  A    between atoms: C_5  and  C_6
REMARK    4  A    between atoms: N_12  and  C_13
REMARK                            x       y       z     vdW  Elec       q    Type
REMARK                         _______ _______ _______ _____ _____    ______ ____
ROOT
ATOM      1  O   UNL     1       8.595  -0.813  26.576  0.00  0.00    +0.000 OA
ATOM      2  C   UNL     1       8.849  -1.448  25.563  0.00  0.00    +0.000 C 
ATOM      3  N   UNL     1       9.284  -0.844  24.460  0.00  0.00    +0.000 NA
ATOM      4  N   UNL     1       8.195  -2.577  25.276  0.00  0.00    +0.000 NA
ENDROOT
BRANCH   4   5
ATOM      5  C   UNL     1       8.844  -3.841  25.112  0.00  0.00    +0.000 C 
ATOM      6  C   UNL     1       8.180  -4.677  24.040  0.00  0.00    +0.000 C 
ATOM      7  C   UNL     1       6.790  -5.102  24.479  0.00  0.00    +0.000 C 
ATOM      8  C   UNL     1       6.495  -4.566  25.870  0.00  0.00    +0.000 C 
ATOM      9  C   UNL     1       7.544  -5.067  26.849  0.00  0.00    +0.000 C 
ATOM     10  C   UNL     1       8.926  -4.608  26.410  0.00  0.00    +0.000 C 
ENDBRANCH   4   5
BRANCH   3  11
ATOM     11  C   UNL     1      10.212  -1.417  23.546  0.00  0.00    +0.000 C 
BRANCH  11  12
ATOM     12  C   UNL     1       9.643  -1.556  22.144  0.00  0.00    +0.000 C 
BRANCH  12  13
ATOM     13  C   UNL     1       8.342  -0.855  22.021  0.00  0.00    +0.000 A 
ATOM     14  C   UNL     1       8.454   0.335  20.889  0.00  0.00    +0.000 A 
ATOM     15  C   UNL     1       7.267   0.082  19.923  0.00  0.00    +0.000 A 
ATOM     16  N   UNL     1       6.249  -0.714  19.783  0.00  0.00    +0.000 NA
ATOM     17  C   UNL     1       6.107  -1.774  20.709  0.00  0.00    +0.000 A 
ATOM     18  C   UNL     1       7.127  -1.679  21.798  0.00  0.00    +0.000 A 
ENDBRANCH  12  13
ENDBRANCH  11  12
ENDBRANCH   3  11
TORSDOF 4
ENDMDL
MODEL 4
REMARK VINA RESULT:      -5.6      1.954      5.388
REMARK  Name = 
REMARK  4 active torsions:
REMARK  status: ('A' for Active; 'I' for Inactive)
REMARK    1  A    between atoms: N_3  and  C_4
REMARK    2  A    between atoms: C_4  and  C_5
REMARK    3  A    between atoms: C_5  and  C_6
REMARK    4  A    between atoms: N_12  and  C_13
REMARK                            x       y       z     vdW  Elec       q    Type
REMARK                         _______ _______ _______ _____ _____    ______ ____
ROOT
ATOM      1  O   UNL     1      10.130   0.074  24.987  0.00  0.00    +0.000 OA
ATOM      2  C   UNL     1       9.419  -0.796  24.506  0.00  0.00    +0.000 C 
ATOM      3  N   UNL     1       9.466  -2.050  24.950  0.00  0.00    +0.000 NA
ATOM      4  N   UNL     1       9.035  -0.745  23.228  0.00  0.00    +0.000 NA
ENDROOT
BRANCH   4   5
ATOM      5  C   UNL     1       7.665  -0.702  22.820  0.00  0.00    +0.000 C 
ATOM      6  C   UNL     1       7.501  -1.099  21.369  0.00  0.00    +0.000 C 
ATOM      7  C   UNL     1       8.125  -0.058  20.457  0.00  0.00    +0.000 C 
ATOM      8  C   UNL     1       8.715   1.074  21.281  0.00  0.00    +0.000 C 
ATOM      9  C   UNL     1       7.635   1.699  22.148  0.00  0.00    +0.000 C 
ATOM     10  C   UNL     1       7.041   0.650  23.076  0.00  0.00    +0.000 C 
ENDBRANCH   4   5
BRANCH   3  11
ATOM     11  C   UNL     1       8.341  -2.920  25.016  0.00  0.00    +0.000 C 
BRANCH  11  12
ATOM     12  C   UNL     1       8.590  -4.251  24.327  0.00  0.00    +0.000 C 
BRANCH  12  13
ATOM     13  C   UNL     1       7.316  -4.882  23.903  0.00  0.00    +0.000 A 
ATOM     14  C   UNL     1       6.070  -3.828  24.127  0.00  0.00    +0.000 A 
ATOM     15  C   UNL     1       5.335  -3.782  22.762  0.00  0.00    +0.000 A 
ATOM     16  N   UNL     1       5.383  -4.332  21.585  0.00  0.00    +0.000 NA
ATOM     17  C   UNL     1       6.444  -5.230  21.319  0.00  0.00    +0.000 A 
ATOM     18  C   UNL     1       7.256  -5.485  22.548  0.00  0.00    +0.000 A 
ENDBRANCH  12  13
ENDBRANCH  11  12
ENDBRANCH   3  11
TORSDOF 4
ENDMDL
MODEL 5
REMARK VINA RESULT:      -5.6      2.032      2.813
REMARK  Name = 
REMARK  4 active torsions:
REMARK  status: ('A' for Active; 'I' for Inactive)
REMARK    1  A    between atoms: N_3  and  C_4
REMARK    2  A    between atoms: C_4  and  C_5
REMARK    3  A    between atoms: C_5  and  C_6
REMARK    4  A    between atoms: N_12  and  C_13
REMARK                            x       y       z     vdW  Elec       q    Type
REMARK                         _______ _______ _______ _____ _____    ______ ____
ROOT
ATOM      1  O   UNL     1       5.868  -1.428  24.155  0.00  0.00    +0.000 OA
ATOM      2  C   UNL     1       6.505  -1.820  23.189  0.00  0.00    +0.000 C 
ATOM      3  N   UNL     1       6.911  -0.977  22.241  0.00  0.00    +0.000 NA
ATOM      4  N   UNL     1       6.335  -3.053  22.705  0.00  0.00    +0.000 NA
ENDROOT
BRANCH   4   5
ATOM      5  C   UNL     1       7.390  -4.015  22.617  0.00  0.00    +0.000 C 
ATOM      6  C   UNL     1       6.956  -5.256  21.868  0.00  0.00    +0.000 C 
ATOM      7  C   UNL     1       5.910  -6.019  22.660  0.00  0.00    +0.000 C 
ATOM      8  C   UNL     1       5.628  -5.309  23.973  0.00  0.00    +0.000 C 
ATOM      9  C   UNL     1       6.912  -5.171  24.773  0.00  0.00    +0.000 C 
ATOM     10  C   UNL     1       7.938  -4.379  23.977  0.00  0.00    +0.000 C 
ENDBRANCH   4   5
BRANCH   3  11
ATOM     11  C   UNL     1       8.131  -1.108  21.521  0.00  0.00    +0.000 C 
BRANCH  11  12
ATOM     12  C   UNL     1       8.601   0.206  20.920  0.00  0.00    +0.000 C 
BRANCH  12  13
ATOM     13  C   UNL     1       9.664   0.826  21.749  0.00  0.00    +0.000 A 
ATOM     14  C   UNL     1       9.110   2.230  22.407  0.00  0.00    +0.000 A 
ATOM     15  C   UNL     1       9.401   2.102  23.925  0.00  0.00    +0.000 A 
ATOM     16  N   UNL     1       9.959   1.283  24.767  0.00  0.00    +0.000 NA
ATOM     17  C   UNL     1      10.434   0.047  24.271  0.00  0.00    +0.000 A 
ATOM     18  C   UNL     1      10.319  -0.016  22.781  0.00  0.00    +0.000 A 
ENDBRANCH  12  13
ENDBRANCH  11  12
ENDBRANCH   3  11
TORSDOF 4
ENDMDL
MODEL 6
REMARK VINA RESULT:      -5.6      2.471      6.461
REMARK  Name = 
REMARK  4 active torsions:
REMARK  status: ('A' for Active; 'I' for Inactive)
REMARK    1  A    between atoms: N_3  and  C_4
REMARK    2  A    between atoms: C_4  and  C_5
REMARK    3  A    between atoms: C_5  and  C_6
REMARK    4  A    between atoms: N_12  and  C_13
REMARK                            x       y       z     vdW  Elec       q    Type
REMARK                         _______ _______ _______ _____ _____    ______ ____
ROOT
ATOM      1  O   UNL     1       6.767  -0.621  20.996  0.00  0.00    +0.000 OA
ATOM      2  C   UNL     1       7.130  -0.843  22.141  0.00  0.00    +0.000 C 
ATOM      3  N   UNL     1       6.514  -1.746  22.899  0.00  0.00    +0.000 NA
ATOM      4  N   UNL     1       7.691   0.115  22.884  0.00  0.00    +0.000 NA
ENDROOT
BRANCH   4   5
ATOM      5  C   UNL     1       9.006   0.013  23.436  0.00  0.00    +0.000 C 
ATOM      6  C   UNL     1       9.174   0.898  24.652  0.00  0.00    +0.000 C 
ATOM      7  C   UNL     1       9.121   2.362  24.258  0.00  0.00    +0.000 C 
ATOM      8  C   UNL     1       8.928   2.493  22.756  0.00  0.00    +0.000 C 
ATOM      9  C   UNL     1      10.055   1.782  22.027  0.00  0.00    +0.000 C 
ATOM     10  C   UNL     1      10.075   0.310  22.411  0.00  0.00    +0.000 C 
ENDBRANCH   4   5
BRANCH   3  11
ATOM     11  C   UNL     1       7.166  -2.562  23.866  0.00  0.00    +0.000 C 
BRANCH  11  12
ATOM     12  C   UNL     1       7.935  -3.713  23.239  0.00  0.00    +0.000 C 
BRANCH  12  13
ATOM     13  C   UNL     1       8.084  -4.840  24.191  0.00  0.00    +0.000 A 
ATOM     14  C   UNL     1       9.395  -4.586  25.155  0.00  0.00    +0.000 A 
ATOM     15  C   UNL     1       8.864  -4.753  26.603  0.00  0.00    +0.000 A 
ATOM     16  N   UNL     1       7.770  -5.059  27.235  0.00  0.00    +0.000 NA
ATOM     17  C   UNL     1       6.601  -5.266  26.466  0.00  0.00    +0.000 A 
ATOM     18  C   UNL     1       6.902  -5.225  25.002  0.00  0.00    +0.000 A 
ENDBRANCH  12  13
ENDBRANCH  11  12
ENDBRANCH   3  11
TORSDOF 4
ENDMDL
MODEL 7
REMARK VINA RESULT:      -5.5      1.982      6.196
REMARK  Name = 
REMARK  4 active torsions:
REMARK  status: ('A' for Active; 'I' for Inactive)
REMARK    1  A    between atoms: N_3  and  C_4
REMARK    2  A    between atoms: C_4  and  C_5
REMARK    3  A    between atoms: C_5  and  C_6
REMARK    4  A    between atoms: N_12  and  C_13
REMARK                            x       y       z     vdW  Elec       q    Type
REMARK                         _______ _______ _______ _____ _____    ______ ____
ROOT
ATOM      1  O   UNL     1      10.713  -1.719  22.199  0.00  0.00    +0.000 OA
ATOM      2  C   UNL     1       9.593  -1.525  22.647  0.00  0.00    +0.000 C 
ATOM      3  N   UNL     1       8.681  -2.494  22.672  0.00  0.00    +0.000 NA
ATOM      4  N   UNL     1       9.021  -0.320  22.577  0.00  0.00    +0.000 NA
ENDROOT
BRANCH   4   5
ATOM      5  C   UNL     1       8.598   0.417  23.727  0.00  0.00    +0.000 C 
ATOM      6  C   UNL     1       7.797   1.643  23.343  0.00  0.00    +0.000 C 
ATOM      7  C   UNL     1       8.680   2.657  22.637  0.00  0.00    +0.000 C 
ATOM      8  C   UNL     1      10.104   2.135  22.543  0.00  0.00    +0.000 C 
ATOM      9  C   UNL     1      10.637   1.836  23.933  0.00  0.00    +0.000 C 
ATOM     10  C   UNL     1       9.759   0.797  24.615  0.00  0.00    +0.000 C 
ENDBRANCH   4   5
BRANCH   3  11
ATOM     11  C   UNL     1       7.702  -2.648  23.693  0.00  0.00    +0.000 C 
BRANCH  11  12
ATOM     12  C   UNL     1       7.959  -3.859  24.574  0.00  0.00    +0.000 C 
BRANCH  12  13
ATOM     13  C   UNL     1       7.148  -5.022  24.138  0.00  0.00    +0.000 A 
ATOM     14  C   UNL     1       5.550  -4.625  24.154  0.00  0.00    +0.000 A 
ATOM     15  C   UNL     1       5.028  -5.011  22.746  0.00  0.00    +0.000 A 
ATOM     16  N   UNL     1       5.445  -5.563  21.645  0.00  0.00    +0.000 NA
ATOM     17  C   UNL     1       6.814  -5.906  21.556  0.00  0.00    +0.000 A 
ATOM     18  C   UNL     1       7.513  -5.682  22.859  0.00  0.00    +0.000 A 
ENDBRANCH  12  13
ENDBRANCH  11  12
ENDBRANCH   3  11
TORSDOF 4
ENDMDL
MODEL 8
REMARK VINA RESULT:      -5.5      2.447      5.577
REMARK  Name = 
REMARK  4 active torsions:
REMARK  status: ('A' for Active; 'I' for Inactive)
REMARK    1  A    between atoms: N_3  and  C_4
REMARK    2  A    between atoms: C_4  and  C_5
REMARK    3  A    between atoms: C_5  and  C_6
REMARK    4  A    between atoms: N_12  and  C_13
REMARK                            x       y       z     vdW  Elec       q    Type
REMARK                         _______ _______ _______ _____ _____    ______ ____
ROOT
ATOM      1  O   UNL     1       5.878  -3.747  21.196  0.00  0.00    +0.000 OA
ATOM      2  C   UNL     1       5.977  -2.915  22.086  0.00  0.00    +0.000 C 
ATOM      3  N   UNL     1       5.228  -2.987  23.184  0.00  0.00    +0.000 NA
ATOM      4  N   UNL     1       6.328  -1.655  21.816  0.00  0.00    +0.000 NA
ENDROOT
BRANCH   4   5
ATOM      5  C   UNL     1       7.485  -1.026  22.373  0.00  0.00    +0.000 C 
ATOM      6  C   UNL     1       7.174   0.362  22.889  0.00  0.00    +0.000 C 
ATOM      7  C   UNL     1       6.841   1.296  21.740  0.00  0.00    +0.000 C 
ATOM      8  C   UNL     1       6.934   0.553  20.418  0.00  0.00    +0.000 C 
ATOM      9  C   UNL     1       8.327  -0.028  20.250  0.00  0.00    +0.000 C 
ATOM     10  C   UNL     1       8.633  -0.984  21.393  0.00  0.00    +0.000 C 
ENDBRANCH   4   5
BRANCH   3  11
ATOM     11  C   UNL     1       5.665  -2.592  24.479  0.00  0.00    +0.000 C 
BRANCH  11  12
ATOM     12  C   UNL     1       5.920  -3.775  25.398  0.00  0.00    +0.000 C 
BRANCH  12  13
ATOM     13  C   UNL     1       7.310  -3.761  25.916  0.00  0.00    +0.000 A 
ATOM     14  C   UNL     1       7.825  -5.304  26.173  0.00  0.00    +0.000 A 
ATOM     15  C   UNL     1       9.177  -5.405  25.419  0.00  0.00    +0.000 A 
ATOM     16  N   UNL     1       9.991  -4.663  24.729  0.00  0.00    +0.000 NA
ATOM     17  C   UNL     1       9.597  -3.333  24.452  0.00  0.00    +0.000 A 
ATOM     18  C   UNL     1       8.326  -2.987  25.160  0.00  0.00    +0.000 A 
ENDBRANCH  12  13
ENDBRANCH  11  12
ENDBRANCH   3  11
TORSDOF 4
ENDMDL
MODEL 9
REMARK VINA RESULT:      -5.5      1.600      2.250
REMARK  Name = 
REMARK  4 active torsions:
REMARK  status: ('A' for Active; 'I' for Inactive)
REMARK    1  A    between atoms: N_3  and  C_4
REMARK    2  A    between atoms: C_4  and  C_5
REMARK    3  A    between atoms: C_5  and  C_6
REMARK    4  A    between atoms: N_12  and  C_13
REMARK                            x       y       z     vdW  Elec       q    Type
REMARK                         _______ _______ _______ _____ _____    ______ ____
ROOT
ATOM      1  O   UNL     1       7.573  -5.797  26.387  0.00  0.00    +0.000 OA
ATOM      2  C   UNL     1       7.709  -4.809  25.680  0.00  0.00    +0.000 C 
ATOM      3  N   UNL     1       8.107  -3.645  26.188  0.00  0.00    +0.000 NA
ATOM      4  N   UNL     1       6.959  -4.634  24.589  0.00  0.00    +0.000 NA
ENDROOT
BRANCH   4   5
ATOM      5  C   UNL     1       7.505  -4.504  23.273  0.00  0.00    +0.000 C 
ATOM      6  C   UNL     1       6.951  -3.292  22.555  0.00  0.00    +0.000 C 
ATOM      7  C   UNL     1       5.474  -3.477  22.257  0.00  0.00    +0.000 C 
ATOM      8  C   UNL     1       5.005  -4.831  22.761  0.00  0.00    +0.000 C 
ATOM      9  C   UNL     1       5.824  -5.935  22.115  0.00  0.00    +0.000 C 
ATOM     10  C   UNL     1       7.297  -5.752  22.448  0.00  0.00    +0.000 C 
ENDBRANCH   4   5
BRANCH   3  11
ATOM     11  C   UNL     1       8.925  -2.707  25.499  0.00  0.00    +0.000 C 
BRANCH  11  12
ATOM     12  C   UNL     1       8.239  -1.366  25.300  0.00  0.00    +0.000 C 
BRANCH  12  13
ATOM     13  C   UNL     1       8.991  -0.514  24.346  0.00  0.00    +0.000 A 
ATOM     14  C   UNL     1      10.132  -1.416  23.574  0.00  0.00    +0.000 A 
ATOM     15  C   UNL     1       9.896  -1.152  22.064  0.00  0.00    +0.000 A 
ATOM     16  N   UNL     1       9.140  -0.439  21.284  0.00  0.00    +0.000 NA
ATOM     17  C   UNL     1       8.123   0.341  21.882  0.00  0.00    +0.000 A 
ATOM     18  C   UNL     1       8.214   0.294  23.374  0.00  0.00    +0.000 A 
ENDBRANCH  12  13
ENDBRANCH  11  12
ENDBRANCH   3  11
TORSDOF 4
ENDMDL
