MODEL 1
REMARK VINA RESULT:      -5.6      0.000      0.000
REMARK  Name = 
REMARK  4 active torsions:
REMARK  status: ('A' for Active; 'I' for Inactive)
REMARK    1  A    between atoms: O_2  and  C_3
REMARK    2  A    between atoms: C_3  and  C_5
REMARK    3  A    between atoms: C_9  and  N_10
REMARK    4  A    between atoms: N_10  and  S_11
REMARK                            x       y       z     vdW  Elec       q    Type
REMARK                         _______ _______ _______ _____ _____    ______ ____
ROOT
ATOM      1  C   UNL     1      10.178   1.486  22.737  0.00  0.00    +0.000 A 
ATOM      2  C   UNL     1      10.494   0.072  23.489  0.00  0.00    +0.000 A 
ATOM      3  C   UNL     1      10.097  -1.072  22.591  0.00  0.00    +0.000 A 
ATOM      4  C   UNL     1       8.983  -1.204  21.556  0.00  0.00    +0.000 A 
ATOM      5  C   UNL     1       8.605   0.159  20.868  0.00  0.00    +0.000 A 
ATOM      6  C   UNL     1       9.364   1.252  21.534  0.00  0.00    +0.000 A 
ENDROOT
BRANCH   1   7
ATOM      7  C   UNL     1       9.553   2.320  23.691  0.00  0.00    +0.000 C 
ATOM      8  O   UNL     1       9.054   1.955  24.717  0.00  0.00    +0.000 OA
BRANCH   7  10
ATOM      9  C   UNL     1      11.326   3.820  23.399  0.00  0.00    +0.000 C 
ATOM     10  O   UNL     1       9.950   3.601  23.542  0.00  0.00    +0.000 OA
ENDBRANCH   7  10
ENDBRANCH   1   7
BRANCH   5  11
ATOM     11  N   UNL     1       7.204   0.355  21.023  0.00  0.00    +0.000 NA
BRANCH  11  12
ATOM     12  S   UNL     1       6.556   0.050  19.538  0.00  0.00    +0.000 S 
ATOM     13  O   UNL     1       5.857  -1.202  19.581  0.00  0.00    +0.000 OA
ATOM     14  O   UNL     1       7.624   0.120  18.579  0.00  0.00    +0.000 OA
ATOM     15  C   UNL     1       5.371   1.311  19.133  0.00  0.00    +0.000 C 
ENDBRANCH  11  12
ENDBRANCH   5  11
TORSDOF 4
ENDMDL
MODEL 2
REMARK VINA RESULT:      -5.5      3.363      5.084
REMARK  Name = 
REMARK  4 active torsions:
REMARK  status: ('A' for Active; 'I' for Inactive)
REMARK    1  A    between atoms: O_2  and  C_3
REMARK    2  A    between atoms: C_3  and  C_5
REMARK    3  A    between atoms: C_9  and  N_10
REMARK    4  A    between atoms: N_10  and  S_11
REMARK                            x       y       z     vdW  Elec       q    Type
REMARK                         _______ _______ _______ _____ _____    ______ ____
ROOT
ATOM      1  C   UNL     1       9.712   0.334  21.623  0.00  0.00    +0.000 A 
ATOM      2  C   UNL     1      10.044   1.641  22.544  0.00  0.00    +0.000 A 
ATOM      3  C   UNL     1      10.559   1.189  23.886  0.00  0.00    +0.000 A 
ATOM      4  C   UNL     1      10.241  -0.045  24.727  0.00  0.00    +0.000 A 
ATOM      5  C   UNL     1       9.844  -1.300  23.868  0.00  0.00    +0.000 A 
ATOM      6  C   UNL     1       9.752  -0.888  22.441  0.00  0.00    +0.000 A 
ENDROOT
BRANCH   1   7
ATOM      7  C   UNL     1       8.457   0.573  21.021  0.00  0.00    +0.000 C 
ATOM      8  O   UNL     1       7.763   1.532  21.208  0.00  0.00    +0.000 OA
BRANCH   7  10
ATOM      9  C   UNL     1       7.328   0.251  18.996  0.00  0.00    +0.000 C 
ATOM     10  O   UNL     1       8.313  -0.166  19.901  0.00  0.00    +0.000 OA
ENDBRANCH   7  10
ENDBRANCH   1   7
BRANCH   5  11
ATOM     11  N   UNL     1       8.585  -1.771  24.336  0.00  0.00    +0.000 NA
BRANCH  11  12
ATOM     12  S   UNL     1       8.796  -3.385  24.601  0.00  0.00    +0.000 S 
ATOM     13  O   UNL     1      10.158  -3.731  24.313  0.00  0.00    +0.000 OA
ATOM     14  O   UNL     1       7.810  -4.081  23.821  0.00  0.00    +0.000 OA
ATOM     15  C   UNL     1       8.501  -3.752  26.314  0.00  0.00    +0.000 C 
ENDBRANCH  11  12
ENDBRANCH   5  11
TORSDOF 4
ENDMDL
MODEL 3
REMARK VINA RESULT:      -5.5      2.490      3.791
REMARK  Name = 
REMARK  4 active torsions:
REMARK  status: ('A' for Active; 'I' for Inactive)
REMARK    1  A    between atoms: O_2  and  C_3
REMARK    2  A    between atoms: C_3  and  C_5
REMARK    3  A    between atoms: C_9  and  N_10
REMARK    4  A    between atoms: N_10  and  S_11
REMARK                            x       y       z     vdW  Elec       q    Type
REMARK                         _______ _______ _______ _____ _____    ______ ____
ROOT
ATOM      1  C   UNL     1       9.038  -0.941  23.911  0.00  0.00    +0.000 A 
ATOM      2  C   UNL     1      10.417  -0.075  24.036  0.00  0.00    +0.000 A 
ATOM      3  C   UNL     1      10.314   1.155  23.170  0.00  0.00    +0.000 A 
ATOM      4  C   UNL     1       9.594   1.402  21.847  0.00  0.00    +0.000 A 
ATOM      5  C   UNL     1       8.302   0.524  21.666  0.00  0.00    +0.000 A 
ATOM      6  C   UNL     1       8.213  -0.429  22.805  0.00  0.00    +0.000 A 
ENDROOT
BRANCH   1   7
ATOM      7  C   UNL     1       9.424  -2.292  23.753  0.00  0.00    +0.000 C 
ATOM      8  O   UNL     1      10.422  -2.674  23.213  0.00  0.00    +0.000 OA
BRANCH   7  10
ATOM      9  C   UNL     1       9.414  -4.279  24.989  0.00  0.00    +0.000 C 
ATOM     10  O   UNL     1       8.779  -3.081  24.637  0.00  0.00    +0.000 OA
ENDBRANCH   7  10
ENDBRANCH   1   7
BRANCH   5  11
ATOM     11  N   UNL     1       8.417  -0.177  20.434  0.00  0.00    +0.000 NA
BRANCH  11  12
ATOM     12  S   UNL     1       7.064   0.218  19.580  0.00  0.00    +0.000 S 
ATOM     13  O   UNL     1       7.427   0.454  18.212  0.00  0.00    +0.000 OA
ATOM     14  O   UNL     1       6.443   1.330  20.248  0.00  0.00    +0.000 OA
ATOM     15  C   UNL     1       5.923  -1.143  19.604  0.00  0.00    +0.000 C 
ENDBRANCH  11  12
ENDBRANCH   5  11
TORSDOF 4
ENDMDL
MODEL 4
REMARK VINA RESULT:      -5.0      3.485      4.407
REMARK  Name = 
REMARK  4 active torsions:
REMARK  status: ('A' for Active; 'I' for Inactive)
REMARK    1  A    between atoms: O_2  and  C_3
REMARK    2  A    between atoms: C_3  and  C_5
REMARK    3  A    between atoms: C_9  and  N_10
REMARK    4  A    between atoms: N_10  and  S_11
REMARK                            x       y       z     vdW  Elec       q    Type
REMARK                         _______ _______ _______ _____ _____    ______ ____
ROOT
ATOM      1  C   UNL     1       8.737   1.176  23.364  0.00  0.00    +0.000 A 
ATOM      2  C   UNL     1       9.391   1.248  21.869  0.00  0.00    +0.000 A 
ATOM      3  C   UNL     1       9.294  -0.107  21.215  0.00  0.00    +0.000 A 
ATOM      4  C   UNL     1       9.341  -1.516  21.800  0.00  0.00    +0.000 A 
ATOM      5  C   UNL     1       8.786  -1.602  23.269  0.00  0.00    +0.000 A 
ATOM      6  C   UNL     1       8.489  -0.223  23.744  0.00  0.00    +0.000 A 
ENDROOT
BRANCH   1   7
ATOM      7  C   UNL     1       9.630   1.849  24.227  0.00  0.00    +0.000 C 
ATOM      8  O   UNL     1      10.826   1.789  24.181  0.00  0.00    +0.000 OA
BRANCH   7  10
ATOM      9  C   UNL     1       9.202   4.150  24.238  0.00  0.00    +0.000 C 
ATOM     10  O   UNL     1       9.022   2.893  24.829  0.00  0.00    +0.000 OA
ENDBRANCH   7  10
ENDBRANCH   1   7
BRANCH   5  11
ATOM     11  N   UNL     1       9.786  -2.207  24.080  0.00  0.00    +0.000 NA
BRANCH  11  12
ATOM     12  S   UNL     1       9.103  -3.597  24.646  0.00  0.00    +0.000 S 
ATOM     13  O   UNL     1      10.109  -4.618  24.712  0.00  0.00    +0.000 OA
ATOM     14  O   UNL     1       7.980  -3.899  23.803  0.00  0.00    +0.000 OA
ATOM     15  C   UNL     1       8.498  -3.336  26.296  0.00  0.00    +0.000 C 
ENDBRANCH  11  12
ENDBRANCH   5  11
TORSDOF 4
ENDMDL
MODEL 5
REMARK VINA RESULT:      -4.8      3.809      6.143
REMARK  Name = 
REMARK  4 active torsions:
REMARK  status: ('A' for Active; 'I' for Inactive)
REMARK    1  A    between atoms: O_2  and  C_3
REMARK    2  A    between atoms: C_3  and  C_5
REMARK    3  A    between atoms: C_9  and  N_10
REMARK    4  A    between atoms: N_10  and  S_11
REMARK                            x       y       z     vdW  Elec       q    Type
REMARK                         _______ _______ _______ _____ _____    ______ ____
ROOT
ATOM      1  C   UNL     1       6.886  -4.330  23.331  0.00  0.00    +0.000 A 
ATOM      2  C   UNL     1       8.117  -5.023  24.149  0.00  0.00    +0.000 A 
ATOM      3  C   UNL     1       9.098  -3.959  24.573  0.00  0.00    +0.000 A 
ATOM      4  C   UNL     1       9.508  -2.644  23.916  0.00  0.00    +0.000 A 
ATOM      5  C   UNL     1       8.363  -1.991  23.058  0.00  0.00    +0.000 A 
ATOM      6  C   UNL     1       7.210  -2.931  23.011  0.00  0.00    +0.000 A 
ENDROOT
BRANCH   1   7
ATOM      7  C   UNL     1       6.656  -5.133  22.192  0.00  0.00    +0.000 C 
ATOM      8  O   UNL     1       7.417  -5.941  21.741  0.00  0.00    +0.000 OA
BRANCH   7  10
ATOM      9  C   UNL     1       4.483  -5.459  22.999  0.00  0.00    +0.000 C 
ATOM     10  O   UNL     1       5.337  -5.211  21.917  0.00  0.00    +0.000 OA
ENDBRANCH   7  10
ENDBRANCH   1   7
BRANCH   5  11
ATOM     11  N   UNL     1       8.873  -1.759  21.750  0.00  0.00    +0.000 NA
BRANCH  11  12
ATOM     12  S   UNL     1       8.768  -0.129  21.526  0.00  0.00    +0.000 S 
ATOM     13  O   UNL     1       8.273   0.130  20.204  0.00  0.00    +0.000 OA
ATOM     14  O   UNL     1      10.061   0.429  21.814  0.00  0.00    +0.000 OA
ATOM     15  C   UNL     1       7.604   0.559  22.678  0.00  0.00    +0.000 C 
ENDBRANCH  11  12
ENDBRANCH   5  11
TORSDOF 4
ENDMDL
MODEL 6
REMARK VINA RESULT:      -4.7      6.101      7.229
REMARK  Name = 
REMARK  4 active torsions:
REMARK  status: ('A' for Active; 'I' for Inactive)
REMARK    1  A    between atoms: O_2  and  C_3
REMARK    2  A    between atoms: C_3  and  C_5
REMARK    3  A    between atoms: C_9  and  N_10
REMARK    4  A    between atoms: N_10  and  S_11
REMARK                            x       y       z     vdW  Elec       q    Type
REMARK                         _______ _______ _______ _____ _____    ______ ____
ROOT
ATOM      1  C   UNL     1       8.086  -2.693  23.900  0.00  0.00    +0.000 A 
ATOM      2  C   UNL     1       7.637  -3.419  22.509  0.00  0.00    +0.000 A 
ATOM      3  C   UNL     1       6.431  -4.287  22.764  0.00  0.00    +0.000 A 
ATOM      4  C   UNL     1       6.001  -5.080  23.996  0.00  0.00    +0.000 A 
ATOM      5  C   UNL     1       6.485  -4.443  25.349  0.00  0.00    +0.000 A 
ATOM      6  C   UNL     1       7.371  -3.288  25.040  0.00  0.00    +0.000 A 
ENDROOT
BRANCH   1   7
ATOM      7  C   UNL     1       9.491  -2.818  23.985  0.00  0.00    +0.000 C 
ATOM      8  O   UNL     1      10.085  -3.795  24.341  0.00  0.00    +0.000 OA
BRANCH   7  10
ATOM      9  C   UNL     1      10.185  -0.594  23.760  0.00  0.00    +0.000 C 
ATOM     10  O   UNL     1      10.103  -1.886  23.225  0.00  0.00    +0.000 OA
ENDBRANCH   7  10
ENDBRANCH   1   7
BRANCH   5  11
ATOM     11  N   UNL     1       7.197  -5.440  26.073  0.00  0.00    +0.000 NA
BRANCH  11  12
ATOM     12  S   UNL     1       6.217  -5.844  27.336  0.00  0.00    +0.000 S 
ATOM     13  O   UNL     1       7.031  -6.178  28.470  0.00  0.00    +0.000 OA
ATOM     14  O   UNL     1       5.341  -6.889  26.883  0.00  0.00    +0.000 OA
ATOM     15  C   UNL     1       5.218  -4.446  27.787  0.00  0.00    +0.000 C 
ENDBRANCH  11  12
ENDBRANCH   5  11
TORSDOF 4
ENDMDL
MODEL 7
REMARK VINA RESULT:      -4.6      4.455      6.244
REMARK  Name = 
REMARK  4 active torsions:
REMARK  status: ('A' for Active; 'I' for Inactive)
REMARK    1  A    between atoms: O_2  and  C_3
REMARK    2  A    between atoms: C_3  and  C_5
REMARK    3  A    between atoms: C_9  and  N_10
REMARK    4  A    between atoms: N_10  and  S_11
REMARK                            x       y       z     vdW  Elec       q    Type
REMARK                         _______ _______ _______ _____ _____    ______ ____
ROOT
ATOM      1  C   UNL     1       6.850  -4.649  23.471  0.00  0.00    +0.000 A 
ATOM      2  C   UNL     1       5.435  -4.135  22.839  0.00  0.00    +0.000 A 
ATOM      3  C   UNL     1       5.702  -3.031  21.847  0.00  0.00    +0.000 A 
ATOM      4  C   UNL     1       6.781  -1.951  21.804  0.00  0.00    +0.000 A 
ATOM      5  C   UNL     1       8.133  -2.393  22.474  0.00  0.00    +0.000 A 
ATOM      6  C   UNL     1       7.936  -3.727  23.105  0.00  0.00    +0.000 A 
ENDROOT
BRANCH   1   7
ATOM      7  C   UNL     1       6.651  -4.766  24.865  0.00  0.00    +0.000 C 
ATOM      8  O   UNL     1       5.918  -5.546  25.402  0.00  0.00    +0.000 OA
BRANCH   7  10
ATOM      9  C   UNL     1       8.160  -4.928  26.646  0.00  0.00    +0.000 C 
ATOM     10  O   UNL     1       7.676  -4.211  25.544  0.00  0.00    +0.000 OA
ENDBRANCH   7  10
ENDBRANCH   1   7
BRANCH   5  11
ATOM     11  N   UNL     1       8.474  -1.421  23.455  0.00  0.00    +0.000 NA
BRANCH  11  12
ATOM     12  S   UNL     1       9.913  -0.788  22.959  0.00  0.00    +0.000 S 
ATOM     13  O   UNL     1      10.687  -1.822  22.333  0.00  0.00    +0.000 OA
ATOM     14  O   UNL     1      10.529  -0.171  24.101  0.00  0.00    +0.000 OA
ATOM     15  C   UNL     1       9.624   0.474  21.742  0.00  0.00    +0.000 C 
ENDBRANCH  11  12
ENDBRANCH   5  11
TORSDOF 4
ENDMDL
MODEL 8
REMARK VINA RESULT:      -4.6      4.976      7.142
REMARK  Name = 
REMARK  4 active torsions:
REMARK  status: ('A' for Active; 'I' for Inactive)
REMARK    1  A    between atoms: O_2  and  C_3
REMARK    2  A    between atoms: C_3  and  C_5
REMARK    3  A    between atoms: C_9  and  N_10
REMARK    4  A    between atoms: N_10  and  S_11
REMARK                            x       y       z     vdW  Elec       q    Type
REMARK                         _______ _______ _______ _____ _____    ______ ____
ROOT
ATOM      1  C   UNL     1       5.736  -4.466  24.583  0.00  0.00    +0.000 A 
ATOM      2  C   UNL     1       6.170  -5.661  25.608  0.00  0.00    +0.000 A 
ATOM      3  C   UNL     1       7.430  -5.264  26.334  0.00  0.00    +0.000 A 
ATOM      4  C   UNL     1       8.621  -4.413  25.900  0.00  0.00    +0.000 A 
ATOM      5  C   UNL     1       8.245  -3.300  24.855  0.00  0.00    +0.000 A 
ATOM      6  C   UNL     1       6.820  -3.479  24.463  0.00  0.00    +0.000 A 
ENDROOT
BRANCH   1   7
ATOM      7  C   UNL     1       5.396  -5.086  23.360  0.00  0.00    +0.000 C 
ATOM      8  O   UNL     1       4.451  -4.812  22.677  0.00  0.00    +0.000 OA
BRANCH   7  10
ATOM      9  C   UNL     1       6.497  -5.827  21.433  0.00  0.00    +0.000 C 
ATOM     10  O   UNL     1       6.464  -5.717  22.829  0.00  0.00    +0.000 OA
ENDBRANCH   7  10
ENDBRANCH   1   7
BRANCH   5  11
ATOM     11  N   UNL     1       9.097  -3.453  23.726  0.00  0.00    +0.000 NA
BRANCH  11  12
ATOM     12  S   UNL     1       9.589  -1.927  23.342  0.00  0.00    +0.000 S 
ATOM     13  O   UNL     1      10.807  -2.005  22.587  0.00  0.00    +0.000 OA
ATOM     14  O   UNL     1       9.676  -1.182  24.568  0.00  0.00    +0.000 OA
ATOM     15  C   UNL     1       8.370  -1.148  22.311  0.00  0.00    +0.000 C 
ENDBRANCH  11  12
ENDBRANCH   5  11
TORSDOF 4
ENDMDL
MODEL 9
REMARK VINA RESULT:      -4.6      4.953      6.461
REMARK  Name = 
REMARK  4 active torsions:
REMARK  status: ('A' for Active; 'I' for Inactive)
REMARK    1  A    between atoms: O_2  and  C_3
REMARK    2  A    between atoms: C_3  and  C_5
REMARK    3  A    between atoms: C_9  and  N_10
REMARK    4  A    between atoms: N_10  and  S_11
REMARK                            x       y       z     vdW  Elec       q    Type
REMARK                         _______ _______ _______ _____ _____    ______ ____
ROOT
ATOM      1  C   UNL     1       7.877  -5.221  25.293  0.00  0.00    +0.000 A 
ATOM      2  C   UNL     1       6.504  -5.341  24.418  0.00  0.00    +0.000 A 
ATOM      3  C   UNL     1       6.679  -4.611  23.110  0.00  0.00    +0.000 A 
ATOM      4  C   UNL     1       7.489  -3.369  22.748  0.00  0.00    +0.000 A 
ATOM      5  C   UNL     1       8.781  -3.188  23.626  0.00  0.00    +0.000 A 
ATOM      6  C   UNL     1       8.781  -4.229  24.689  0.00  0.00    +0.000 A 
ENDROOT
BRANCH   1   7
ATOM      7  C   UNL     1       7.488  -4.905  26.613  0.00  0.00    +0.000 C 
ATOM      8  O   UNL     1       7.564  -5.637  27.558  0.00  0.00    +0.000 OA
BRANCH   7  10
ATOM      9  C   UNL     1       6.158  -3.025  27.029  0.00  0.00    +0.000 C 
ATOM     10  O   UNL     1       7.426  -3.568  26.788  0.00  0.00    +0.000 OA
ENDBRANCH   7  10
ENDBRANCH   1   7
BRANCH   5  11
ATOM     11  N   UNL     1       8.741  -1.886  24.201  0.00  0.00    +0.000 NA
BRANCH  11  12
ATOM     12  S   UNL     1       9.691  -0.953  23.229  0.00  0.00    +0.000 S 
ATOM     13  O   UNL     1       8.852  -0.166  22.372  0.00  0.00    +0.000 OA
ATOM     14  O   UNL     1      10.606  -1.830  22.552  0.00  0.00    +0.000 OA
ATOM     15  C   UNL     1      10.642   0.170  24.224  0.00  0.00    +0.000 C 
ENDBRANCH  11  12
ENDBRANCH   5  11
TORSDOF 4
ENDMDL
