MODEL 1
REMARK VINA RESULT:      -5.1      0.000      0.000
REMARK  Name = 
REMARK  5 active torsions:
REMARK  status: ('A' for Active; 'I' for Inactive)
REMARK    1  A    between atoms: C_2  and  C_5
REMARK    2  A    between atoms: C_5  and  N_7
REMARK    3  A    between atoms: C_5  and  C_11
REMARK    4  A    between atoms: N_13  and  C_14
REMARK    5  A    between atoms: C_14  and  C_15
REMARK                            x       y       z     vdW  Elec       q    Type
REMARK                         _______ _______ _______ _____ _____    ______ ____
ROOT
ATOM      1  C   UNL     1       8.121  -0.790  20.821  0.00  0.00    +0.000 C 
ENDROOT
BRANCH   1   2
ATOM      2  N   UNL     1       6.966  -1.118  21.625  0.00  0.00    +0.000 NA
ATOM      3  C   UNL     1       6.262  -2.243  21.367  0.00  0.00    +0.000 C 
ATOM      4  O   UNL     1       5.579  -2.324  20.365  0.00  0.00    +0.000 OA
ATOM      5  C   UNL     1       6.709  -3.481  22.116  0.00  0.00    +0.000 C 
ENDBRANCH   1   2
BRANCH   1   7
ATOM      6  C   UNL     1       6.551   1.080  20.341  0.00  0.00    +0.000 C 
ATOM      7  C   UNL     1       7.826   0.387  19.916  0.00  0.00    +0.000 C 
ATOM      8  O   UNL     1       7.689  -0.065  18.607  0.00  0.00    +0.000 OA
ENDBRANCH   1   7
BRANCH   1   9
ATOM      9  C   UNL     1       9.250  -0.347  21.749  0.00  0.00    +0.000 C 
ATOM     10  O   UNL     1       9.749   0.755  21.620  0.00  0.00    +0.000 OA
ATOM     11  N   UNL     1       9.140  -0.887  23.004  0.00  0.00    +0.000 NA
BRANCH  11  12
ATOM     12  C   UNL     1       9.978  -2.053  23.287  0.00  0.00    +0.000 C 
BRANCH  12  13
ATOM     13  C   UNL     1       9.372  -2.799  24.399  0.00  0.00    +0.000 C 
ATOM     14  C   UNL     1       8.873  -3.427  25.294  0.00  0.00    +0.000 C 
ATOM     15 BR   UNL     1       9.426  -4.855  25.283  0.00  0.00    +0.000 Br
ENDBRANCH  12  13
ENDBRANCH  11  12
ENDBRANCH   1   9
TORSDOF 5
ENDMDL
MODEL 2
REMARK VINA RESULT:      -5.0      2.346      3.516
REMARK  Name = 
REMARK  5 active torsions:
REMARK  status: ('A' for Active; 'I' for Inactive)
REMARK    1  A    between atoms: C_2  and  C_5
REMARK    2  A    between atoms: C_5  and  N_7
REMARK    3  A    between atoms: C_5  and  C_11
REMARK    4  A    between atoms: N_13  and  C_14
REMARK    5  A    between atoms: C_14  and  C_15
REMARK                            x       y       z     vdW  Elec       q    Type
REMARK                         _______ _______ _______ _____ _____    ______ ____
ROOT
ATOM      1  C   UNL     1       8.158  -0.902  21.501  0.00  0.00    +0.000 C 
ENDROOT
BRANCH   1   2
ATOM      2  N   UNL     1       7.658   0.234  20.761  0.00  0.00    +0.000 NA
ATOM      3  C   UNL     1       7.220   0.074  19.492  0.00  0.00    +0.000 C 
ATOM      4  O   UNL     1       8.006  -0.156  18.595  0.00  0.00    +0.000 OA
ATOM      5  C   UNL     1       5.745  -0.238  19.345  0.00  0.00    +0.000 C 
ENDBRANCH   1   2
BRANCH   1   7
ATOM      6  C   UNL     1       9.930   0.821  21.790  0.00  0.00    +0.000 C 
ATOM      7  C   UNL     1       9.465  -0.562  22.186  0.00  0.00    +0.000 C 
ATOM      8  O   UNL     1      10.430  -1.495  21.820  0.00  0.00    +0.000 OA
ENDBRANCH   1   7
BRANCH   1   9
ATOM      9  C   UNL     1       7.164  -1.235  22.612  0.00  0.00    +0.000 C 
ATOM     10  O   UNL     1       6.446  -0.366  23.069  0.00  0.00    +0.000 OA
ATOM     11  N   UNL     1       6.685  -2.517  22.520  0.00  0.00    +0.000 NA
BRANCH  11  12
ATOM     12  C   UNL     1       7.304  -3.508  23.400  0.00  0.00    +0.000 C 
BRANCH  12  13
ATOM     13  C   UNL     1       7.308  -4.804  22.708  0.00  0.00    +0.000 C 
ATOM     14  C   UNL     1       7.289  -5.865  22.142  0.00  0.00    +0.000 C 
ATOM     15 BR   UNL     1       6.198  -5.848  21.067  0.00  0.00    +0.000 Br
ENDBRANCH  12  13
ENDBRANCH  11  12
ENDBRANCH   1   9
TORSDOF 5
ENDMDL
MODEL 3
REMARK VINA RESULT:      -5.0      3.324      5.648
REMARK  Name = 
REMARK  5 active torsions:
REMARK  status: ('A' for Active; 'I' for Inactive)
REMARK    1  A    between atoms: C_2  and  C_5
REMARK    2  A    between atoms: C_5  and  N_7
REMARK    3  A    between atoms: C_5  and  C_11
REMARK    4  A    between atoms: N_13  and  C_14
REMARK    5  A    between atoms: C_14  and  C_15
REMARK                            x       y       z     vdW  Elec       q    Type
REMARK                         _______ _______ _______ _____ _____    ______ ____
ROOT
ATOM      1  C   UNL     1       7.619  -3.423  22.430  0.00  0.00    +0.000 C 
ENDROOT
BRANCH   1   2
ATOM      2  N   UNL     1       8.133  -2.654  23.541  0.00  0.00    +0.000 NA
ATOM      3  C   UNL     1       9.461  -2.640  23.795  0.00  0.00    +0.000 C 
ATOM      4  O   UNL     1      10.013  -3.630  24.233  0.00  0.00    +0.000 OA
ATOM      5  C   UNL     1      10.245  -1.538  23.113  0.00  0.00    +0.000 C 
ENDBRANCH   1   2
BRANCH   1   7
ATOM      6  C   UNL     1       6.570  -4.514  24.404  0.00  0.00    +0.000 C 
ATOM      7  C   UNL     1       6.853  -4.631  22.924  0.00  0.00    +0.000 C 
ATOM      8  O   UNL     1       7.604  -5.778  22.687  0.00  0.00    +0.000 OA
ENDBRANCH   1   7
BRANCH   1   9
ATOM      9  C   UNL     1       6.618  -2.561  21.663  0.00  0.00    +0.000 C 
ATOM     10  O   UNL     1       5.486  -2.965  21.472  0.00  0.00    +0.000 OA
ATOM     11  N   UNL     1       6.824  -1.220  21.857  0.00  0.00    +0.000 NA
BRANCH  11  12
ATOM     12  C   UNL     1       7.549  -0.513  20.800  0.00  0.00    +0.000 C 
BRANCH  12  13
ATOM     13  C   UNL     1       6.624  -0.280  19.681  0.00  0.00    +0.000 C 
ATOM     14  C   UNL     1       5.854  -0.083  18.781  0.00  0.00    +0.000 C 
ATOM     15 BR   UNL     1       5.146   1.258  19.002  0.00  0.00    +0.000 Br
ENDBRANCH  12  13
ENDBRANCH  11  12
ENDBRANCH   1   9
TORSDOF 5
ENDMDL
MODEL 4
REMARK VINA RESULT:      -4.9      2.918      5.186
REMARK  Name = 
REMARK  5 active torsions:
REMARK  status: ('A' for Active; 'I' for Inactive)
REMARK    1  A    between atoms: C_2  and  C_5
REMARK    2  A    between atoms: C_5  and  N_7
REMARK    3  A    between atoms: C_5  and  C_11
REMARK    4  A    between atoms: N_13  and  C_14
REMARK    5  A    between atoms: C_14  and  C_15
REMARK                            x       y       z     vdW  Elec       q    Type
REMARK                         _______ _______ _______ _____ _____    ______ ____
ROOT
ATOM      1  C   UNL     1       7.613  -3.353  22.483  0.00  0.00    +0.000 C 
ENDROOT
BRANCH   1   2
ATOM      2  N   UNL     1       8.227  -2.538  23.507  0.00  0.00    +0.000 NA
ATOM      3  C   UNL     1       9.555  -2.632  23.738  0.00  0.00    +0.000 C 
ATOM      4  O   UNL     1      10.019  -3.626  24.261  0.00  0.00    +0.000 OA
ATOM      5  C   UNL     1      10.426  -1.683  22.941  0.00  0.00    +0.000 C 
ENDBRANCH   1   2
BRANCH   1   7
ATOM      6  C   UNL     1       6.475  -4.161  24.543  0.00  0.00    +0.000 C 
ATOM      7  C   UNL     1       6.810  -4.476  23.103  0.00  0.00    +0.000 C 
ATOM      8  O   UNL     1       7.550  -5.653  23.049  0.00  0.00    +0.000 OA
ENDBRANCH   1   7
BRANCH   1   9
ATOM      9  C   UNL     1       6.620  -2.492  21.705  0.00  0.00    +0.000 C 
ATOM     10  O   UNL     1       5.483  -2.885  21.522  0.00  0.00    +0.000 OA
ATOM     11  N   UNL     1       6.844  -1.150  21.876  0.00  0.00    +0.000 NA
BRANCH  11  12
ATOM     12  C   UNL     1       7.574  -0.470  20.806  0.00  0.00    +0.000 C 
BRANCH  12  13
ATOM     13  C   UNL     1       8.010   0.842  21.305  0.00  0.00    +0.000 C 
ATOM     14  C   UNL     1       8.377   1.905  21.729  0.00  0.00    +0.000 C 
ATOM     15 BR   UNL     1       9.856   1.816  22.114  0.00  0.00    +0.000 Br
ENDBRANCH  12  13
ENDBRANCH  11  12
ENDBRANCH   1   9
TORSDOF 5
ENDMDL
MODEL 5
REMARK VINA RESULT:      -4.9      1.895      2.269
REMARK  Name = 
REMARK  5 active torsions:
REMARK  status: ('A' for Active; 'I' for Inactive)
REMARK    1  A    between atoms: C_2  and  C_5
REMARK    2  A    between atoms: C_5  and  N_7
REMARK    3  A    between atoms: C_5  and  C_11
REMARK    4  A    between atoms: N_13  and  C_14
REMARK    5  A    between atoms: C_14  and  C_15
REMARK                            x       y       z     vdW  Elec       q    Type
REMARK                         _______ _______ _______ _____ _____    ______ ____
ROOT
ATOM      1  C   UNL     1       8.020  -0.908  20.848  0.00  0.00    +0.000 C 
ENDROOT
BRANCH   1   2
ATOM      2  N   UNL     1       6.917  -1.062  21.770  0.00  0.00    +0.000 NA
ATOM      3  C   UNL     1       6.347  -2.275  21.943  0.00  0.00    +0.000 C 
ATOM      4  O   UNL     1       5.669  -2.767  21.063  0.00  0.00    +0.000 OA
ATOM      5  C   UNL     1       6.942  -3.126  23.046  0.00  0.00    +0.000 C 
ENDBRANCH   1   2
BRANCH   1   7
ATOM      6  C   UNL     1       6.520   1.004  20.313  0.00  0.00    +0.000 C 
ATOM      7  C   UNL     1       7.829   0.322  19.987  0.00  0.00    +0.000 C 
ATOM      8  O   UNL     1       7.833  -0.052  18.647  0.00  0.00    +0.000 OA
ENDBRANCH   1   7
BRANCH   1   9
ATOM      9  C   UNL     1       9.298  -0.678  21.651  0.00  0.00    +0.000 C 
ATOM     10  O   UNL     1      10.099  -1.583  21.797  0.00  0.00    +0.000 OA
ATOM     11  N   UNL     1       9.757   0.610  21.548  0.00  0.00    +0.000 NA
BRANCH  11  12
ATOM     12  C   UNL     1       9.439   1.505  22.661  0.00  0.00    +0.000 C 
BRANCH  12  13
ATOM     13  C   UNL     1       9.969   0.914  23.897  0.00  0.00    +0.000 C 
ATOM     14  C   UNL     1      10.384   0.435  24.919  0.00  0.00    +0.000 C 
ATOM     15 BR   UNL     1       9.300  -0.449  25.542  0.00  0.00    +0.000 Br
ENDBRANCH  12  13
ENDBRANCH  11  12
ENDBRANCH   1   9
TORSDOF 5
ENDMDL
MODEL 6
REMARK VINA RESULT:      -4.9      3.412      5.773
REMARK  Name = 
REMARK  5 active torsions:
REMARK  status: ('A' for Active; 'I' for Inactive)
REMARK    1  A    between atoms: C_2  and  C_5
REMARK    2  A    between atoms: C_5  and  N_7
REMARK    3  A    between atoms: C_5  and  C_11
REMARK    4  A    between atoms: N_13  and  C_14
REMARK    5  A    between atoms: C_14  and  C_15
REMARK                            x       y       z     vdW  Elec       q    Type
REMARK                         _______ _______ _______ _____ _____    ______ ____
ROOT
ATOM      1  C   UNL     1       8.879  -0.195  23.033  0.00  0.00    +0.000 C 
ENDROOT
BRANCH   1   2
ATOM      2  N   UNL     1       9.098   0.752  24.103  0.00  0.00    +0.000 NA
ATOM      3  C   UNL     1      10.296   1.366  24.225  0.00  0.00    +0.000 C 
ATOM      4  O   UNL     1      11.273   0.741  24.588  0.00  0.00    +0.000 OA
ATOM      5  C   UNL     1      10.433   2.684  23.491  0.00  0.00    +0.000 C 
ENDBRANCH   1   2
BRANCH   1   7
ATOM      6  C   UNL     1       9.541  -2.325  24.136  0.00  0.00    +0.000 C 
ATOM      7  C   UNL     1       8.389  -1.518  23.581  0.00  0.00    +0.000 C 
ATOM      8  O   UNL     1       7.772  -2.237  22.562  0.00  0.00    +0.000 OA
ENDBRANCH   1   7
BRANCH   1   9
ATOM      9  C   UNL     1       7.766   0.337  22.132  0.00  0.00    +0.000 C 
ATOM     10  O   UNL     1       6.790   0.876  22.621  0.00  0.00    +0.000 OA
ATOM     11  N   UNL     1       8.236   0.778  20.922  0.00  0.00    +0.000 NA
BRANCH  11  12
ATOM     12  C   UNL     1       8.089  -0.140  19.793  0.00  0.00    +0.000 C 
BRANCH  12  13
ATOM     13  C   UNL     1       7.006   0.355  18.932  0.00  0.00    +0.000 C 
ATOM     14  C   UNL     1       6.106   0.752  18.241  0.00  0.00    +0.000 C 
ATOM     15 BR   UNL     1       5.022   1.374  19.127  0.00  0.00    +0.000 Br
ENDBRANCH  12  13
ENDBRANCH  11  12
ENDBRANCH   1   9
TORSDOF 5
ENDMDL
MODEL 7
REMARK VINA RESULT:      -4.9      3.475      5.212
REMARK  Name = 
REMARK  5 active torsions:
REMARK  status: ('A' for Active; 'I' for Inactive)
REMARK    1  A    between atoms: C_2  and  C_5
REMARK    2  A    between atoms: C_5  and  N_7
REMARK    3  A    between atoms: C_5  and  C_11
REMARK    4  A    between atoms: N_13  and  C_14
REMARK    5  A    between atoms: C_14  and  C_15
REMARK                            x       y       z     vdW  Elec       q    Type
REMARK                         _______ _______ _______ _____ _____    ______ ____
ROOT
ATOM      1  C   UNL     1       8.990  -0.742  23.706  0.00  0.00    +0.000 C 
ENDROOT
BRANCH   1   2
ATOM      2  N   UNL     1       9.537  -1.764  24.570  0.00  0.00    +0.000 NA
ATOM      3  C   UNL     1       8.716  -2.671  25.145  0.00  0.00    +0.000 C 
ATOM      4  O   UNL     1       7.957  -2.337  26.032  0.00  0.00    +0.000 OA
ATOM      5  C   UNL     1       8.489  -3.942  24.353  0.00  0.00    +0.000 C 
ENDBRANCH   1   2
BRANCH   1   7
ATOM      6  C   UNL     1      10.838   0.540  24.772  0.00  0.00    +0.000 C 
ATOM      7  C   UNL     1       9.473   0.629  24.129  0.00  0.00    +0.000 C 
ATOM      8  O   UNL     1       8.570   1.173  25.038  0.00  0.00    +0.000 OA
ENDBRANCH   1   7
BRANCH   1   9
ATOM      9  C   UNL     1       9.518  -0.967  22.291  0.00  0.00    +0.000 C 
ATOM     10  O   UNL     1      10.486  -1.680  22.106  0.00  0.00    +0.000 OA
ATOM     11  N   UNL     1       8.522  -0.936  21.349  0.00  0.00    +0.000 NA
BRANCH  11  12
ATOM     12  C   UNL     1       8.369   0.314  20.604  0.00  0.00    +0.000 C 
BRANCH  12  13
ATOM     13  C   UNL     1       7.364   0.105  19.552  0.00  0.00    +0.000 C 
ATOM     14  C   UNL     1       6.527  -0.063  18.706  0.00  0.00    +0.000 C 
ATOM     15 BR   UNL     1       5.427   0.991  18.864  0.00  0.00    +0.000 Br
ENDBRANCH  12  13
ENDBRANCH  11  12
ENDBRANCH   1   9
TORSDOF 5
ENDMDL
MODEL 8
REMARK VINA RESULT:      -4.8      1.646      2.541
REMARK  Name = 
REMARK  5 active torsions:
REMARK  status: ('A' for Active; 'I' for Inactive)
REMARK    1  A    between atoms: C_2  and  C_5
REMARK    2  A    between atoms: C_5  and  N_7
REMARK    3  A    between atoms: C_5  and  C_11
REMARK    4  A    between atoms: N_13  and  C_14
REMARK    5  A    between atoms: C_14  and  C_15
REMARK                            x       y       z     vdW  Elec       q    Type
REMARK                         _______ _______ _______ _____ _____    ______ ____
ROOT
ATOM      1  C   UNL     1       8.280   0.323  21.328  0.00  0.00    +0.000 C 
ENDROOT
BRANCH   1   2
ATOM      2  N   UNL     1       7.068   0.709  20.642  0.00  0.00    +0.000 NA
ATOM      3  C   UNL     1       6.780   0.179  19.432  0.00  0.00    +0.000 C 
ATOM      4  O   UNL     1       7.426   0.495  18.453  0.00  0.00    +0.000 OA
ATOM      5  C   UNL     1       5.957  -1.092  19.455  0.00  0.00    +0.000 C 
ENDBRANCH   1   2
BRANCH   1   7
ATOM      6  C   UNL     1       7.965   2.708  21.965  0.00  0.00    +0.000 C 
ATOM      7  C   UNL     1       8.821   1.475  22.148  0.00  0.00    +0.000 C 
ATOM      8  O   UNL     1      10.123   1.755  21.743  0.00  0.00    +0.000 OA
ENDBRANCH   1   7
BRANCH   1   9
ATOM      9  C   UNL     1       7.946  -0.790  22.319  0.00  0.00    +0.000 C 
ATOM     10  O   UNL     1       6.813  -0.907  22.746  0.00  0.00    +0.000 OA
ATOM     11  N   UNL     1       8.703  -1.916  22.117  0.00  0.00    +0.000 NA
BRANCH  11  12
ATOM     12  C   UNL     1       9.853  -2.095  23.004  0.00  0.00    +0.000 C 
BRANCH  12  13
ATOM     13  C   UNL     1       9.453  -2.978  24.108  0.00  0.00    +0.000 C 
ATOM     14  C   UNL     1       9.106  -3.703  25.002  0.00  0.00    +0.000 C 
ATOM     15 BR   UNL     1       8.335  -4.892  24.422  0.00  0.00    +0.000 Br
ENDBRANCH  12  13
ENDBRANCH  11  12
ENDBRANCH   1   9
TORSDOF 5
ENDMDL
MODEL 9
REMARK VINA RESULT:      -4.8      1.933      3.433
REMARK  Name = 
REMARK  5 active torsions:
REMARK  status: ('A' for Active; 'I' for Inactive)
REMARK    1  A    between atoms: C_2  and  C_5
REMARK    2  A    between atoms: C_5  and  N_7
REMARK    3  A    between atoms: C_5  and  C_11
REMARK    4  A    between atoms: N_13  and  C_14
REMARK    5  A    between atoms: C_14  and  C_15
REMARK                            x       y       z     vdW  Elec       q    Type
REMARK                         _______ _______ _______ _____ _____    ______ ____
ROOT
ATOM      1  C   UNL     1       7.579  -0.308  21.662  0.00  0.00    +0.000 C 
ENDROOT
BRANCH   1   2
ATOM      2  N   UNL     1       8.989  -0.359  21.352  0.00  0.00    +0.000 NA
ATOM      3  C   UNL     1       9.853   0.453  22.002  0.00  0.00    +0.000 C 
ATOM      4  O   UNL     1       9.855   1.648  21.784  0.00  0.00    +0.000 OA
ATOM      5  C   UNL     1      10.458  -0.117  23.268  0.00  0.00    +0.000 C 
ENDBRANCH   1   2
BRANCH   1   7
ATOM      6  C   UNL     1       7.559   0.228  19.232  0.00  0.00    +0.000 C 
ATOM      7  C   UNL     1       6.808   0.352  20.538  0.00  0.00    +0.000 C 
ATOM      8  O   UNL     1       6.623   1.698  20.837  0.00  0.00    +0.000 OA
ENDBRANCH   1   7
BRANCH   1   9
ATOM      9  C   UNL     1       7.050  -1.737  21.765  0.00  0.00    +0.000 C 
ATOM     10  O   UNL     1       6.106  -2.089  21.084  0.00  0.00    +0.000 OA
ATOM     11  N   UNL     1       8.039  -2.642  22.055  0.00  0.00    +0.000 NA
BRANCH  11  12
ATOM     12  C   UNL     1       8.145  -3.065  23.451  0.00  0.00    +0.000 C 
BRANCH  12  13
ATOM     13  C   UNL     1       7.353  -4.290  23.625  0.00  0.00    +0.000 C 
ATOM     14  C   UNL     1       6.693  -5.287  23.751  0.00  0.00    +0.000 C 
ATOM     15 BR   UNL     1       6.471  -5.926  22.376  0.00  0.00    +0.000 Br
ENDBRANCH  12  13
ENDBRANCH  11  12
ENDBRANCH   1   9
TORSDOF 5
ENDMDL
