MODEL 1
REMARK VINA RESULT:      -6.0      0.000      0.000
REMARK  Name = 
REMARK  3 active torsions:
REMARK  status: ('A' for Active; 'I' for Inactive)
REMARK    1  A    between atoms: C_2  and  C_3
REMARK    2  A    between atoms: N_5  and  C_6
REMARK    3  A    between atoms: C_6  and  C_7
REMARK                            x       y       z     vdW  Elec       q    Type
REMARK                         _______ _______ _______ _____ _____    ______ ____
ROOT
ATOM      1  C   UNL     1       8.436  -0.369  20.866  0.00  0.00    +0.000 A 
ATOM      2  C   UNL     1       8.488   1.242  21.161  0.00  0.00    +0.000 A 
ATOM      3  C   UNL     1       9.593   1.542  22.129  0.00  0.00    +0.000 A 
ATOM      4  C   UNL     1      10.368   0.740  23.123  0.00  0.00    +0.000 A 
ATOM      5  O   UNL     1      10.012   0.907  24.528  0.00  0.00    +0.000 OA
ATOM      6  C   UNL     1       9.497  -0.370  24.970  0.00  0.00    +0.000 C 
ATOM      7  O   UNL     1       9.955  -1.404  24.050  0.00  0.00    +0.000 OA
ATOM      8  C   UNL     1      10.309  -0.832  22.820  0.00  0.00    +0.000 A 
ATOM      9  C   UNL     1       9.458  -1.098  21.628  0.00  0.00    +0.000 A 
ENDROOT
BRANCH   1  10
ATOM     10  C   UNL     1       7.069  -0.872  20.837  0.00  0.00    +0.000 C 
BRANCH  10  13
ATOM     11  C   UNL     1       6.277  -0.205  18.604  0.00  0.00    +0.000 C 
ATOM     12  O   UNL     1       6.209  -1.188  17.870  0.00  0.00    +0.000 OA
ATOM     13  N   UNL     1       6.167  -0.351  19.924  0.00  0.00    +0.000 NA
BRANCH  11  15
ATOM     14 CL   UNL     1       4.515   1.750  19.216  0.00  0.00    +0.000 Cl
ATOM     15  C   UNL     1       5.724   1.128  18.069  0.00  0.00    +0.000 C 
ENDBRANCH  11  15
ENDBRANCH  10  13
ENDBRANCH   1  10
TORSDOF 3
ENDMDL
MODEL 2
REMARK VINA RESULT:      -5.5      1.773      2.236
REMARK  Name = 
REMARK  3 active torsions:
REMARK  status: ('A' for Active; 'I' for Inactive)
REMARK    1  A    between atoms: C_2  and  C_3
REMARK    2  A    between atoms: N_5  and  C_6
REMARK    3  A    between atoms: C_6  and  C_7
REMARK                            x       y       z     vdW  Elec       q    Type
REMARK                         _______ _______ _______ _____ _____    ______ ____
ROOT
ATOM      1  C   UNL     1       9.701   0.685  21.873  0.00  0.00    +0.000 A 
ATOM      2  C   UNL     1       9.741   1.432  23.331  0.00  0.00    +0.000 A 
ATOM      3  C   UNL     1      10.059   0.432  24.402  0.00  0.00    +0.000 A 
ATOM      4  C   UNL     1       9.980  -1.056  24.509  0.00  0.00    +0.000 A 
ATOM      5  O   UNL     1       8.868  -1.605  25.276  0.00  0.00    +0.000 OA
ATOM      6  C   UNL     1       8.053  -2.344  24.338  0.00  0.00    +0.000 C 
ATOM      7  O   UNL     1       8.858  -2.653  23.162  0.00  0.00    +0.000 OA
ATOM      8  C   UNL     1       9.944  -1.771  23.076  0.00  0.00    +0.000 A 
ATOM      9  C   UNL     1       9.965  -0.755  21.989  0.00  0.00    +0.000 A 
ENDROOT
BRANCH   1  10
ATOM     10  C   UNL     1       8.586   1.145  21.056  0.00  0.00    +0.000 C 
BRANCH  10  13
ATOM     11  C   UNL     1       7.202   0.212  19.248  0.00  0.00    +0.000 C 
ATOM     12  O   UNL     1       7.902  -0.036  18.268  0.00  0.00    +0.000 OA
ATOM     13  N   UNL     1       7.743   0.219  20.465  0.00  0.00    +0.000 NA
BRANCH  11  15
ATOM     14 CL   UNL     1       5.622  -1.880  19.899  0.00  0.00    +0.000 Cl
ATOM     15  C   UNL     1       5.733  -0.244  19.211  0.00  0.00    +0.000 C 
ENDBRANCH  11  15
ENDBRANCH  10  13
ENDBRANCH   1  10
TORSDOF 3
ENDMDL
MODEL 3
REMARK VINA RESULT:      -5.3      2.453      2.934
REMARK  Name = 
REMARK  3 active torsions:
REMARK  status: ('A' for Active; 'I' for Inactive)
REMARK    1  A    between atoms: C_2  and  C_3
REMARK    2  A    between atoms: N_5  and  C_6
REMARK    3  A    between atoms: C_6  and  C_7
REMARK                            x       y       z     vdW  Elec       q    Type
REMARK                         _______ _______ _______ _____ _____    ______ ____
ROOT
ATOM      1  C   UNL     1       8.603  -0.082  21.010  0.00  0.00    +0.000 A 
ATOM      2  C   UNL     1       8.467   1.519  21.331  0.00  0.00    +0.000 A 
ATOM      3  C   UNL     1       9.498   1.922  22.342  0.00  0.00    +0.000 A 
ATOM      4  C   UNL     1      10.323   1.191  23.351  0.00  0.00    +0.000 A 
ATOM      5  O   UNL     1       9.903   1.291  24.744  0.00  0.00    +0.000 OA
ATOM      6  C   UNL     1       9.518  -0.043  25.148  0.00  0.00    +0.000 C 
ATOM      7  O   UNL     1      10.119  -1.003  24.230  0.00  0.00    +0.000 OA
ATOM      8  C   UNL     1      10.448  -0.372  23.022  0.00  0.00    +0.000 A 
ATOM      9  C   UNL     1       9.673  -0.708  21.797  0.00  0.00    +0.000 A 
ENDROOT
BRANCH   1  10
ATOM     10  C   UNL     1       7.302  -0.732  20.924  0.00  0.00    +0.000 C 
BRANCH  10  13
ATOM     11  C   UNL     1       5.937  -2.585  21.795  0.00  0.00    +0.000 C 
ATOM     12  O   UNL     1       5.643  -3.356  20.884  0.00  0.00    +0.000 OA
ATOM     13  N   UNL     1       7.039  -1.843  21.708  0.00  0.00    +0.000 NA
BRANCH  11  15
ATOM     14 CL   UNL     1       6.721  -2.255  24.360  0.00  0.00    +0.000 Cl
ATOM     15  C   UNL     1       5.566  -3.000  23.230  0.00  0.00    +0.000 C 
ENDBRANCH  11  15
ENDBRANCH  10  13
ENDBRANCH   1  10
TORSDOF 3
ENDMDL
MODEL 4
REMARK VINA RESULT:      -5.3      3.609      5.808
REMARK  Name = 
REMARK  3 active torsions:
REMARK  status: ('A' for Active; 'I' for Inactive)
REMARK    1  A    between atoms: C_2  and  C_3
REMARK    2  A    between atoms: N_5  and  C_6
REMARK    3  A    between atoms: C_6  and  C_7
REMARK                            x       y       z     vdW  Elec       q    Type
REMARK                         _______ _______ _______ _____ _____    ______ ____
ROOT
ATOM      1  C   UNL     1       8.184  -2.011  23.050  0.00  0.00    +0.000 A 
ATOM      2  C   UNL     1       7.302  -1.509  21.762  0.00  0.00    +0.000 A 
ATOM      3  C   UNL     1       6.131  -2.424  21.566  0.00  0.00    +0.000 A 
ATOM      4  C   UNL     1       5.798  -3.816  21.997  0.00  0.00    +0.000 A 
ATOM      5  O   UNL     1       5.918  -4.865  20.991  0.00  0.00    +0.000 OA
ATOM      6  C   UNL     1       6.975  -5.742  21.443  0.00  0.00    +0.000 C 
ATOM      7  O   UNL     1       7.171  -5.540  22.874  0.00  0.00    +0.000 OA
ATOM      8  C   UNL     1       6.667  -4.289  23.257  0.00  0.00    +0.000 A 
ATOM      9  C   UNL     1       7.619  -3.220  23.662  0.00  0.00    +0.000 A 
ENDROOT
BRANCH   1  10
ATOM     10  C   UNL     1       9.615  -1.941  22.788  0.00  0.00    +0.000 C 
BRANCH  10  13
ATOM     11  C   UNL     1      10.029   0.119  24.070  0.00  0.00    +0.000 C 
ATOM     12  O   UNL     1      10.106  -0.140  25.269  0.00  0.00    +0.000 OA
ATOM     13  N   UNL     1      10.327  -0.815  23.168  0.00  0.00    +0.000 NA
BRANCH  11  15
ATOM     14 CL   UNL     1       9.990   1.719  21.894  0.00  0.00    +0.000 Cl
ATOM     15  C   UNL     1      10.359   1.555  23.625  0.00  0.00    +0.000 C 
ENDBRANCH  11  15
ENDBRANCH  10  13
ENDBRANCH   1  10
TORSDOF 3
ENDMDL
MODEL 5
REMARK VINA RESULT:      -5.2      4.206      5.216
REMARK  Name = 
REMARK  3 active torsions:
REMARK  status: ('A' for Active; 'I' for Inactive)
REMARK    1  A    between atoms: C_2  and  C_3
REMARK    2  A    between atoms: N_5  and  C_6
REMARK    3  A    between atoms: C_6  and  C_7
REMARK                            x       y       z     vdW  Elec       q    Type
REMARK                         _______ _______ _______ _____ _____    ______ ____
ROOT
ATOM      1  C   UNL     1      10.264  -0.674  23.705  0.00  0.00    +0.000 A 
ATOM      2  C   UNL     1       9.767  -0.575  22.147  0.00  0.00    +0.000 A 
ATOM      3  C   UNL     1       9.756   0.859  21.710  0.00  0.00    +0.000 A 
ATOM      4  C   UNL     1       9.727   2.175  22.419  0.00  0.00    +0.000 A 
ATOM      5  O   UNL     1       8.453   2.882  22.444  0.00  0.00    +0.000 OA
ATOM      6  C   UNL     1       8.046   2.936  23.831  0.00  0.00    +0.000 C 
ATOM      7  O   UNL     1       9.217   2.715  24.671  0.00  0.00    +0.000 OA
ATOM      8  C   UNL     1      10.218   2.061  23.939  0.00  0.00    +0.000 A 
ATOM      9  C   UNL     1      10.551   0.649  24.273  0.00  0.00    +0.000 A 
ENDROOT
BRANCH   1  10
ATOM     10  C   UNL     1       9.468  -1.624  24.470  0.00  0.00    +0.000 C 
BRANCH  10  13
ATOM     11  C   UNL     1       8.312  -3.657  23.702  0.00  0.00    +0.000 C 
ATOM     12  O   UNL     1       7.751  -3.442  22.630  0.00  0.00    +0.000 OA
ATOM     13  N   UNL     1       9.381  -2.940  24.048  0.00  0.00    +0.000 NA
BRANCH  11  15
ATOM     14 CL   UNL     1       9.644  -5.275  25.408  0.00  0.00    +0.000 Cl
ATOM     15  C   UNL     1       8.327  -5.105  24.225  0.00  0.00    +0.000 C 
ENDBRANCH  11  15
ENDBRANCH  10  13
ENDBRANCH   1  10
TORSDOF 3
ENDMDL
MODEL 6
REMARK VINA RESULT:      -5.2      4.110      5.487
REMARK  Name = 
REMARK  3 active torsions:
REMARK  status: ('A' for Active; 'I' for Inactive)
REMARK    1  A    between atoms: C_2  and  C_3
REMARK    2  A    between atoms: N_5  and  C_6
REMARK    3  A    between atoms: C_6  and  C_7
REMARK                            x       y       z     vdW  Elec       q    Type
REMARK                         _______ _______ _______ _____ _____    ______ ____
ROOT
ATOM      1  C   UNL     1       9.596  -1.455  22.426  0.00  0.00    +0.000 A 
ATOM      2  C   UNL     1       8.690  -0.676  21.305  0.00  0.00    +0.000 A 
ATOM      3  C   UNL     1       9.001   0.791  21.335  0.00  0.00    +0.000 A 
ATOM      4  C   UNL     1       9.618   1.715  22.334  0.00  0.00    +0.000 A 
ATOM      5  O   UNL     1       8.714   2.585  23.077  0.00  0.00    +0.000 OA
ATOM      6  C   UNL     1       8.806   2.178  24.462  0.00  0.00    +0.000 C 
ATOM      7  O   UNL     1      10.048   1.437  24.650  0.00  0.00    +0.000 OA
ATOM      8  C   UNL     1      10.502   0.938  23.422  0.00  0.00    +0.000 A 
ATOM      9  C   UNL     1      10.455  -0.529  23.176  0.00  0.00    +0.000 A 
ENDROOT
BRANCH   1  10
ATOM     10  C   UNL     1       8.824  -2.458  23.147  0.00  0.00    +0.000 C 
BRANCH  10  13
ATOM     11  C   UNL     1       9.239  -3.989  25.029  0.00  0.00    +0.000 C 
ATOM     12  O   UNL     1      10.151  -4.765  24.747  0.00  0.00    +0.000 OA
ATOM     13  N   UNL     1       9.179  -2.794  24.443  0.00  0.00    +0.000 NA
BRANCH  11  15
ATOM     14 CL   UNL     1       7.677  -5.456  26.674  0.00  0.00    +0.000 Cl
ATOM     15  C   UNL     1       8.698  -4.014  26.469  0.00  0.00    +0.000 C 
ENDBRANCH  11  15
ENDBRANCH  10  13
ENDBRANCH   1  10
TORSDOF 3
ENDMDL
MODEL 7
REMARK VINA RESULT:      -5.2      1.814      2.188
REMARK  Name = 
REMARK  3 active torsions:
REMARK  status: ('A' for Active; 'I' for Inactive)
REMARK    1  A    between atoms: C_2  and  C_3
REMARK    2  A    between atoms: N_5  and  C_6
REMARK    3  A    between atoms: C_6  and  C_7
REMARK                            x       y       z     vdW  Elec       q    Type
REMARK                         _______ _______ _______ _____ _____    ______ ____
ROOT
ATOM      1  C   UNL     1       9.448  -1.266  22.366  0.00  0.00    +0.000 A 
ATOM      2  C   UNL     1       9.574   0.109  21.483  0.00  0.00    +0.000 A 
ATOM      3  C   UNL     1      10.076   1.223  22.352  0.00  0.00    +0.000 A 
ATOM      4  C   UNL     1      10.128   1.466  23.825  0.00  0.00    +0.000 A 
ATOM      5  O   UNL     1       9.147   2.393  24.376  0.00  0.00    +0.000 OA
ATOM      6  C   UNL     1       8.304   1.615  25.257  0.00  0.00    +0.000 C 
ATOM      7  O   UNL     1       9.009   0.391  25.618  0.00  0.00    +0.000 OA
ATOM      8  C   UNL     1      10.006   0.113  24.674  0.00  0.00    +0.000 A 
ATOM      9  C   UNL     1       9.837  -1.054  23.766  0.00  0.00    +0.000 A 
ENDROOT
BRANCH   1  10
ATOM     10  C   UNL     1       8.223  -1.995  22.065  0.00  0.00    +0.000 C 
BRANCH  10  13
ATOM     11  C   UNL     1       6.362  -1.595  20.504  0.00  0.00    +0.000 C 
ATOM     12  O   UNL     1       5.557  -2.523  20.562  0.00  0.00    +0.000 OA
ATOM     13  N   UNL     1       7.129  -1.314  21.556  0.00  0.00    +0.000 NA
BRANCH  11  15
ATOM     14 CL   UNL     1       7.418   0.178  18.760  0.00  0.00    +0.000 Cl
ATOM     15  C   UNL     1       5.982  -0.370  19.654  0.00  0.00    +0.000 C 
ENDBRANCH  11  15
ENDBRANCH  10  13
ENDBRANCH   1  10
TORSDOF 3
ENDMDL
MODEL 8
REMARK VINA RESULT:      -5.1      3.581      4.981
REMARK  Name = 
REMARK  3 active torsions:
REMARK  status: ('A' for Active; 'I' for Inactive)
REMARK    1  A    between atoms: C_2  and  C_3
REMARK    2  A    between atoms: N_5  and  C_6
REMARK    3  A    between atoms: C_6  and  C_7
REMARK                            x       y       z     vdW  Elec       q    Type
REMARK                         _______ _______ _______ _____ _____    ______ ____
ROOT
ATOM      1  C   UNL     1       8.905  -1.812  22.270  0.00  0.00    +0.000 A 
ATOM      2  C   UNL     1       7.361  -1.487  21.827  0.00  0.00    +0.000 A 
ATOM      3  C   UNL     1       7.296  -0.137  21.177  0.00  0.00    +0.000 A 
ATOM      4  C   UNL     1       8.173   1.073  21.175  0.00  0.00    +0.000 A 
ATOM      5  O   UNL     1       7.744   2.200  21.995  0.00  0.00    +0.000 OA
ATOM      6  C   UNL     1       8.747   2.355  23.025  0.00  0.00    +0.000 C 
ATOM      7  O   UNL     1       9.971   1.691  22.593  0.00  0.00    +0.000 OA
ATOM      8  C   UNL     1       9.678   0.737  21.608  0.00  0.00    +0.000 A 
ATOM      9  C   UNL     1       9.813  -0.707  21.938  0.00  0.00    +0.000 A 
ENDROOT
BRANCH   1  10
ATOM     10  C   UNL     1       8.974  -2.425  23.590  0.00  0.00    +0.000 C 
BRANCH  10  13
ATOM     11  C   UNL     1       8.105  -4.727  23.675  0.00  0.00    +0.000 C 
ATOM     12  O   UNL     1       8.890  -5.451  24.284  0.00  0.00    +0.000 OA
ATOM     13  N   UNL     1       8.072  -3.420  23.930  0.00  0.00    +0.000 NA
BRANCH  11  15
ATOM     14 CL   UNL     1       6.879  -5.984  21.622  0.00  0.00    +0.000 Cl
ATOM     15  C   UNL     1       6.747  -5.326  23.269  0.00  0.00    +0.000 C 
ENDBRANCH  11  15
ENDBRANCH  10  13
ENDBRANCH   1  10
TORSDOF 3
ENDMDL
MODEL 9
REMARK VINA RESULT:      -5.1      3.539      4.740
REMARK  Name = 
REMARK  3 active torsions:
REMARK  status: ('A' for Active; 'I' for Inactive)
REMARK    1  A    between atoms: C_2  and  C_3
REMARK    2  A    between atoms: N_5  and  C_6
REMARK    3  A    between atoms: C_6  and  C_7
REMARK                            x       y       z     vdW  Elec       q    Type
REMARK                         _______ _______ _______ _____ _____    ______ ____
ROOT
ATOM      1  C   UNL     1       5.881  -3.318  22.111  0.00  0.00    +0.000 A 
ATOM      2  C   UNL     1       6.528  -4.738  21.612  0.00  0.00    +0.000 A 
ATOM      3  C   UNL     1       7.176  -5.433  22.773  0.00  0.00    +0.000 A 
ATOM      4  C   UNL     1       7.675  -5.000  24.113  0.00  0.00    +0.000 A 
ATOM      5  O   UNL     1       9.119  -4.863  24.266  0.00  0.00    +0.000 OA
ATOM      6  C   UNL     1       9.370  -3.460  24.513  0.00  0.00    +0.000 C 
ATOM      7  O   UNL     1       8.134  -2.839  24.976  0.00  0.00    +0.000 OA
ATOM      8  C   UNL     1       7.031  -3.612  24.586  0.00  0.00    +0.000 A 
ATOM      9  C   UNL     1       6.112  -3.084  23.542  0.00  0.00    +0.000 A 
ENDROOT
BRANCH   1  10
ATOM     10  C   UNL     1       6.130  -2.243  21.159  0.00  0.00    +0.000 C 
BRANCH  10  13
ATOM     11  C   UNL     1       8.051  -0.707  21.242  0.00  0.00    +0.000 C 
ATOM     12  O   UNL     1       8.266  -0.240  20.125  0.00  0.00    +0.000 OA
ATOM     13  N   UNL     1       6.826  -1.117  21.566  0.00  0.00    +0.000 NA
BRANCH  11  15
ATOM     14 CL   UNL     1       9.910   1.166  21.823  0.00  0.00    +0.000 Cl
ATOM     15  C   UNL     1       8.860  -0.139  22.421  0.00  0.00    +0.000 C 
ENDBRANCH  11  15
ENDBRANCH  10  13
ENDBRANCH   1  10
TORSDOF 3
ENDMDL
