MODEL 1
REMARK VINA RESULT:      -5.6      0.000      0.000
REMARK  Name = 
REMARK  3 active torsions:
REMARK  status: ('A' for Active; 'I' for Inactive)
REMARK    1  A    between atoms: C_2  and  N_4
REMARK    2  A    between atoms: C_6  and  C_8
REMARK    3  A    between atoms: C_14  and  C_16
REMARK                            x       y       z     vdW  Elec       q    Type
REMARK                         _______ _______ _______ _____ _____    ______ ____
ROOT
ATOM      1  C   UNL     1       8.082  -2.538  22.296  0.00  0.00    +0.000 C 
ATOM      2  C   UNL     1       9.274  -1.671  22.652  0.00  0.00    +0.000 C 
ATOM      3  C   UNL     1       9.467  -0.529  21.675  0.00  0.00    +0.000 C 
ATOM      4  N   UNL     1       8.279   0.361  21.722  0.00  0.00    +0.000 N 
ATOM      5  C   UNL     1       7.158  -0.288  22.528  0.00  0.00    +0.000 C 
ATOM      6  C   UNL     1       6.966  -1.616  21.729  0.00  0.00    +0.000 C 
ATOM      7  C   UNL     1       7.798   0.776  20.480  0.00  0.00    +0.000 C 
ATOM      8  O   UNL     1       7.836  -0.074  19.575  0.00  0.00    +0.000 OA
ENDROOT
BRANCH   1  11
ATOM      9  N   UNL     1       7.420  -4.386  23.702  0.00  0.00    +0.000 N 
ATOM     10  C   UNL     1       8.550  -5.037  24.365  0.00  0.00    +0.000 C 
ATOM     11  C   UNL     1       7.448  -3.017  23.624  0.00  0.00    +0.000 C 
ATOM     12  O   UNL     1       6.537  -2.384  24.119  0.00  0.00    +0.000 OA
BRANCH   9  14
ATOM     13  C   UNL     1       7.117  -6.053  21.921  0.00  0.00    +0.000 C 
ATOM     14  C   UNL     1       6.508  -5.165  22.937  0.00  0.00    +0.000 C 
ATOM     15  C   UNL     1       5.440  -5.822  23.761  0.00  0.00    +0.000 C 
ENDBRANCH   9  14
ENDBRANCH   1  11
BRANCH   7  16
ATOM     16  C   UNL     1       6.470   1.539  20.621  0.00  0.00    +0.000 C 
ATOM     17 CL   UNL     1       5.493   1.313  19.161  0.00  0.00    +0.000 Cl
ENDBRANCH   7  16
TORSDOF 3
ENDMDL
MODEL 2
REMARK VINA RESULT:      -5.5      2.346      2.990
REMARK  Name = 
REMARK  3 active torsions:
REMARK  status: ('A' for Active; 'I' for Inactive)
REMARK    1  A    between atoms: C_2  and  N_4
REMARK    2  A    between atoms: C_6  and  C_8
REMARK    3  A    between atoms: C_14  and  C_16
REMARK                            x       y       z     vdW  Elec       q    Type
REMARK                         _______ _______ _______ _____ _____    ______ ____
ROOT
ATOM      1  C   UNL     1       7.786  -2.195  23.500  0.00  0.00    +0.000 C 
ATOM      2  C   UNL     1       7.276  -2.192  22.071  0.00  0.00    +0.000 C 
ATOM      3  C   UNL     1       7.176  -0.793  21.499  0.00  0.00    +0.000 C 
ATOM      4  N   UNL     1       8.531  -0.185  21.456  0.00  0.00    +0.000 N 
ATOM      5  C   UNL     1       9.527  -1.045  22.227  0.00  0.00    +0.000 C 
ATOM      6  C   UNL     1       8.850  -1.071  23.635  0.00  0.00    +0.000 C 
ATOM      7  C   UNL     1       8.602   1.139  21.892  0.00  0.00    +0.000 C 
ATOM      8  O   UNL     1       7.879   1.427  22.861  0.00  0.00    +0.000 OA
ENDROOT
BRANCH   1  11
ATOM      9  N   UNL     1       7.880  -4.556  23.996  0.00  0.00    +0.000 N 
ATOM     10  C   UNL     1       7.423  -5.395  22.888  0.00  0.00    +0.000 C 
ATOM     11  C   UNL     1       8.650  -3.467  23.676  0.00  0.00    +0.000 C 
ATOM     12  O   UNL     1       9.763  -3.377  24.154  0.00  0.00    +0.000 OA
BRANCH   9  14
ATOM     13  C   UNL     1       5.918  -5.238  25.310  0.00  0.00    +0.000 C 
ATOM     14  C   UNL     1       7.303  -4.718  25.286  0.00  0.00    +0.000 C 
ATOM     15  C   UNL     1       8.219  -5.374  26.277  0.00  0.00    +0.000 C 
ENDBRANCH   9  14
ENDBRANCH   1  11
BRANCH   7  16
ATOM     16  C   UNL     1      10.060   1.619  21.983  0.00  0.00    +0.000 C 
ATOM     17 CL   UNL     1      10.374   2.273  23.599  0.00  0.00    +0.000 Cl
ENDBRANCH   7  16
TORSDOF 3
ENDMDL
MODEL 3
REMARK VINA RESULT:      -5.3      2.843      3.173
REMARK  Name = 
REMARK  3 active torsions:
REMARK  status: ('A' for Active; 'I' for Inactive)
REMARK    1  A    between atoms: C_2  and  N_4
REMARK    2  A    between atoms: C_6  and  C_8
REMARK    3  A    between atoms: C_14  and  C_16
REMARK                            x       y       z     vdW  Elec       q    Type
REMARK                         _______ _______ _______ _____ _____    ______ ____
ROOT
ATOM      1  C   UNL     1       8.527  -2.010  24.219  0.00  0.00    +0.000 C 
ATOM      2  C   UNL     1       9.782  -2.374  23.448  0.00  0.00    +0.000 C 
ATOM      3  C   UNL     1      10.235  -1.259  22.528  0.00  0.00    +0.000 C 
ATOM      4  N   UNL     1      10.581  -0.065  23.341  0.00  0.00    +0.000 N 
ATOM      5  C   UNL     1      10.129  -0.253  24.786  0.00  0.00    +0.000 C 
ATOM      6  C   UNL     1       8.601  -0.499  24.576  0.00  0.00    +0.000 C 
ATOM      7  C   UNL     1      10.105   1.150  22.845  0.00  0.00    +0.000 C 
ATOM      8  O   UNL     1       8.972   1.118  22.334  0.00  0.00    +0.000 OA
ENDROOT
BRANCH   1  11
ATOM      9  N   UNL     1       8.417  -4.019  25.554  0.00  0.00    +0.000 N 
ATOM     10  C   UNL     1       9.590  -4.880  25.395  0.00  0.00    +0.000 C 
ATOM     11  C   UNL     1       8.640  -2.667  25.616  0.00  0.00    +0.000 C 
ATOM     12  O   UNL     1       8.271  -2.058  26.600  0.00  0.00    +0.000 OA
BRANCH   9  14
ATOM     13  C   UNL     1       6.862  -5.159  24.029  0.00  0.00    +0.000 C 
ATOM     14  C   UNL     1       7.116  -4.559  25.358  0.00  0.00    +0.000 C 
ATOM     15  C   UNL     1       6.632  -5.393  26.508  0.00  0.00    +0.000 C 
ENDBRANCH   9  14
ENDBRANCH   1  11
BRANCH   7  16
ATOM     16  C   UNL     1      10.355   2.296  23.840  0.00  0.00    +0.000 C 
ATOM     17 CL   UNL     1       8.830   3.130  24.185  0.00  0.00    +0.000 Cl
ENDBRANCH   7  16
TORSDOF 3
ENDMDL
MODEL 4
REMARK VINA RESULT:      -5.3      3.396      6.218
REMARK  Name = 
REMARK  3 active torsions:
REMARK  status: ('A' for Active; 'I' for Inactive)
REMARK    1  A    between atoms: C_2  and  N_4
REMARK    2  A    between atoms: C_6  and  C_8
REMARK    3  A    between atoms: C_14  and  C_16
REMARK                            x       y       z     vdW  Elec       q    Type
REMARK                         _______ _______ _______ _____ _____    ______ ____
ROOT
ATOM      1  C   UNL     1       9.112  -2.069  23.346  0.00  0.00    +0.000 C 
ATOM      2  C   UNL     1       7.687  -2.430  22.971  0.00  0.00    +0.000 C 
ATOM      3  C   UNL     1       7.358  -3.874  23.288  0.00  0.00    +0.000 C 
ATOM      4  N   UNL     1       7.467  -4.090  24.754  0.00  0.00    +0.000 N 
ATOM      5  C   UNL     1       8.117  -2.884  25.424  0.00  0.00    +0.000 C 
ATOM      6  C   UNL     1       9.475  -2.827  24.654  0.00  0.00    +0.000 C 
ATOM      7  C   UNL     1       8.125  -5.261  25.134  0.00  0.00    +0.000 C 
ATOM      8  O   UNL     1       9.102  -5.583  24.437  0.00  0.00    +0.000 OA
ENDROOT
BRANCH   1  11
ATOM      9  N   UNL     1       8.482   0.223  22.923  0.00  0.00    +0.000 N 
ATOM     10  C   UNL     1       7.054   0.472  23.118  0.00  0.00    +0.000 C 
ATOM     11  C   UNL     1       9.102  -0.599  23.830  0.00  0.00    +0.000 C 
ATOM     12  O   UNL     1      10.043  -0.167  24.463  0.00  0.00    +0.000 OA
BRANCH   9  14
ATOM     13  C   UNL     1       8.260   0.432  20.484  0.00  0.00    +0.000 C 
ATOM     14  C   UNL     1       9.098   0.587  21.693  0.00  0.00    +0.000 C 
ATOM     15  C   UNL     1       9.845   1.888  21.757  0.00  0.00    +0.000 C 
ENDBRANCH   9  14
ENDBRANCH   1  11
BRANCH   7  16
ATOM     16  C   UNL     1       8.348  -5.308  26.656  0.00  0.00    +0.000 C 
ATOM     17 CL   UNL     1       6.799  -5.551  27.479  0.00  0.00    +0.000 Cl
ENDBRANCH   7  16
TORSDOF 3
ENDMDL
MODEL 5
REMARK VINA RESULT:      -5.3      2.645      5.652
REMARK  Name = 
REMARK  3 active torsions:
REMARK  status: ('A' for Active; 'I' for Inactive)
REMARK    1  A    between atoms: C_2  and  N_4
REMARK    2  A    between atoms: C_6  and  C_8
REMARK    3  A    between atoms: C_14  and  C_16
REMARK                            x       y       z     vdW  Elec       q    Type
REMARK                         _______ _______ _______ _____ _____    ______ ____
ROOT
ATOM      1  C   UNL     1       7.422  -1.611  23.153  0.00  0.00    +0.000 C 
ATOM      2  C   UNL     1       7.045  -1.987  24.574  0.00  0.00    +0.000 C 
ATOM      3  C   UNL     1       5.965  -3.048  24.621  0.00  0.00    +0.000 C 
ATOM      4  N   UNL     1       6.473  -4.290  23.984  0.00  0.00    +0.000 N 
ATOM      5  C   UNL     1       7.794  -4.023  23.270  0.00  0.00    +0.000 C 
ATOM      6  C   UNL     1       7.359  -2.895  22.281  0.00  0.00    +0.000 C 
ATOM      7  C   UNL     1       5.579  -4.922  23.118  0.00  0.00    +0.000 C 
ATOM      8  O   UNL     1       4.882  -4.169  22.419  0.00  0.00    +0.000 OA
ENDROOT
BRANCH   1  11
ATOM      9  N   UNL     1       9.193  -0.029  23.592  0.00  0.00    +0.000 N 
ATOM     10  C   UNL     1       9.481   0.130  25.018  0.00  0.00    +0.000 C 
ATOM     11  C   UNL     1       8.938  -1.302  23.146  0.00  0.00    +0.000 C 
ATOM     12  O   UNL     1       9.644  -1.768  22.275  0.00  0.00    +0.000 OA
BRANCH   9  14
ATOM     13  C   UNL     1       8.060   2.146  23.434  0.00  0.00    +0.000 C 
ATOM     14  C   UNL     1       8.912   1.117  22.798  0.00  0.00    +0.000 C 
ATOM     15  C   UNL     1      10.117   1.670  22.094  0.00  0.00    +0.000 C 
ENDBRANCH   9  14
ENDBRANCH   1  11
BRANCH   7  16
ATOM     16  C   UNL     1       6.252  -6.088  22.374  0.00  0.00    +0.000 C 
ATOM     17 CL   UNL     1       6.158  -5.815  20.627  0.00  0.00    +0.000 Cl
ENDBRANCH   7  16
TORSDOF 3
ENDMDL
MODEL 6
REMARK VINA RESULT:      -5.2      3.078      5.537
REMARK  Name = 
REMARK  3 active torsions:
REMARK  status: ('A' for Active; 'I' for Inactive)
REMARK    1  A    between atoms: C_2  and  N_4
REMARK    2  A    between atoms: C_6  and  C_8
REMARK    3  A    between atoms: C_14  and  C_16
REMARK                            x       y       z     vdW  Elec       q    Type
REMARK                         _______ _______ _______ _____ _____    ______ ____
ROOT
ATOM      1  C   UNL     1       8.101  -2.256  22.700  0.00  0.00    +0.000 C 
ATOM      2  C   UNL     1       6.819  -1.697  22.112  0.00  0.00    +0.000 C 
ATOM      3  C   UNL     1       5.997  -2.759  21.410  0.00  0.00    +0.000 C 
ATOM      4  N   UNL     1       5.585  -3.790  22.397  0.00  0.00    +0.000 N 
ATOM      5  C   UNL     1       6.324  -3.592  23.717  0.00  0.00    +0.000 C 
ATOM      6  C   UNL     1       7.806  -3.687  23.230  0.00  0.00    +0.000 C 
ATOM      7  C   UNL     1       5.718  -5.111  21.967  0.00  0.00    +0.000 C 
ATOM      8  O   UNL     1       6.721  -5.355  21.275  0.00  0.00    +0.000 OA
ENDROOT
BRANCH   1  11
ATOM      9  N   UNL     1       8.700  -0.176  23.770  0.00  0.00    +0.000 N 
ATOM     10  C   UNL     1       7.605   0.794  23.794  0.00  0.00    +0.000 C 
ATOM     11  C   UNL     1       8.377  -1.487  24.014  0.00  0.00    +0.000 C 
ATOM     12  O   UNL     1       8.910  -2.057  24.945  0.00  0.00    +0.000 OA
BRANCH   9  14
ATOM     13  C   UNL     1       9.920   0.967  21.968  0.00  0.00    +0.000 C 
ATOM     14  C   UNL     1       9.963   0.201  23.234  0.00  0.00    +0.000 C 
ATOM     15  C   UNL     1      10.907   0.762  24.256  0.00  0.00    +0.000 C 
ENDBRANCH   9  14
ENDBRANCH   1  11
BRANCH   7  16
ATOM     16  C   UNL     1       5.442  -6.101  23.111  0.00  0.00    +0.000 C 
ATOM     17 CL   UNL     1       3.699  -6.194  23.413  0.00  0.00    +0.000 Cl
ENDBRANCH   7  16
TORSDOF 3
ENDMDL
MODEL 7
REMARK VINA RESULT:      -5.2      1.895      2.022
REMARK  Name = 
REMARK  3 active torsions:
REMARK  status: ('A' for Active; 'I' for Inactive)
REMARK    1  A    between atoms: C_2  and  N_4
REMARK    2  A    between atoms: C_6  and  C_8
REMARK    3  A    between atoms: C_14  and  C_16
REMARK                            x       y       z     vdW  Elec       q    Type
REMARK                         _______ _______ _______ _____ _____    ______ ____
ROOT
ATOM      1  C   UNL     1       7.865  -2.450  22.719  0.00  0.00    +0.000 C 
ATOM      2  C   UNL     1       9.166  -2.673  23.466  0.00  0.00    +0.000 C 
ATOM      3  C   UNL     1      10.189  -1.595  23.173  0.00  0.00    +0.000 C 
ATOM      4  N   UNL     1       9.665  -0.285  23.637  0.00  0.00    +0.000 N 
ATOM      5  C   UNL     1       8.191  -0.401  24.012  0.00  0.00    +0.000 C 
ATOM      6  C   UNL     1       7.595  -0.920  22.664  0.00  0.00    +0.000 C 
ATOM      7  C   UNL     1       9.852   0.778  22.751  0.00  0.00    +0.000 C 
ATOM      8  O   UNL     1       9.716   0.505  21.546  0.00  0.00    +0.000 OA
ENDROOT
BRANCH   1  11
ATOM      9  N   UNL     1       6.641  -4.306  23.661  0.00  0.00    +0.000 N 
ATOM     10  C   UNL     1       7.371  -4.995  24.725  0.00  0.00    +0.000 C 
ATOM     11  C   UNL     1       6.718  -2.936  23.638  0.00  0.00    +0.000 C 
ATOM     12  O   UNL     1       5.693  -2.291  23.714  0.00  0.00    +0.000 OA
BRANCH   9  14
ATOM     13  C   UNL     1       7.086  -5.977  21.915  0.00  0.00    +0.000 C 
ATOM     14  C   UNL     1       6.131  -5.049  22.561  0.00  0.00    +0.000 C 
ATOM     15  C   UNL     1       4.776  -5.644  22.813  0.00  0.00    +0.000 C 
ENDBRANCH   9  14
ENDBRANCH   1  11
BRANCH   7  16
ATOM     16  C   UNL     1       9.122   2.043  23.234  0.00  0.00    +0.000 C 
ATOM     17 CL   UNL     1       8.060   2.646  21.950  0.00  0.00    +0.000 Cl
ENDBRANCH   7  16
TORSDOF 3
ENDMDL
MODEL 8
REMARK VINA RESULT:      -5.2      2.374      3.066
REMARK  Name = 
REMARK  3 active torsions:
REMARK  status: ('A' for Active; 'I' for Inactive)
REMARK    1  A    between atoms: C_2  and  N_4
REMARK    2  A    between atoms: C_6  and  C_8
REMARK    3  A    between atoms: C_14  and  C_16
REMARK                            x       y       z     vdW  Elec       q    Type
REMARK                         _______ _______ _______ _____ _____    ______ ____
ROOT
ATOM      1  C   UNL     1       7.959  -3.586  24.086  0.00  0.00    +0.000 C 
ATOM      2  C   UNL     1       8.340  -2.559  25.135  0.00  0.00    +0.000 C 
ATOM      3  C   UNL     1       9.430  -1.623  24.655  0.00  0.00    +0.000 C 
ATOM      4  N   UNL     1       8.935  -0.855  23.484  0.00  0.00    +0.000 N 
ATOM      5  C   UNL     1       7.611  -1.430  22.990  0.00  0.00    +0.000 C 
ATOM      6  C   UNL     1       8.034  -2.903  22.692  0.00  0.00    +0.000 C 
ATOM      7  C   UNL     1       9.834  -0.743  22.423  0.00  0.00    +0.000 C 
ATOM      8  O   UNL     1      10.524  -1.751  22.192  0.00  0.00    +0.000 OA
ENDROOT
BRANCH   1  11
ATOM      9  N   UNL     1       6.107  -4.197  25.510  0.00  0.00    +0.000 N 
ATOM     10  C   UNL     1       5.694  -3.119  26.408  0.00  0.00    +0.000 C 
ATOM     11  C   UNL     1       6.440  -3.845  24.226  0.00  0.00    +0.000 C 
ATOM     12  O   UNL     1       5.827  -4.345  23.305  0.00  0.00    +0.000 OA
BRANCH   9  14
ATOM     13  C   UNL     1       7.269  -5.481  27.254  0.00  0.00    +0.000 C 
ATOM     14  C   UNL     1       6.418  -5.478  26.044  0.00  0.00    +0.000 C 
ATOM     15  C   UNL     1       5.235  -6.398  26.126  0.00  0.00    +0.000 C 
ENDBRANCH   9  14
ENDBRANCH   1  11
BRANCH   7  16
ATOM     16  C   UNL     1       9.173  -0.094  21.195  0.00  0.00    +0.000 C 
ATOM     17 CL   UNL     1       8.881   1.624  21.514  0.00  0.00    +0.000 Cl
ENDBRANCH   7  16
TORSDOF 3
ENDMDL
MODEL 9
REMARK VINA RESULT:      -5.2      2.549      3.069
REMARK  Name = 
REMARK  3 active torsions:
REMARK  status: ('A' for Active; 'I' for Inactive)
REMARK    1  A    between atoms: C_2  and  N_4
REMARK    2  A    between atoms: C_6  and  C_8
REMARK    3  A    between atoms: C_14  and  C_16
REMARK                            x       y       z     vdW  Elec       q    Type
REMARK                         _______ _______ _______ _____ _____    ______ ____
ROOT
ATOM      1  C   UNL     1       7.226  -3.316  23.006  0.00  0.00    +0.000 C 
ATOM      2  C   UNL     1       7.457  -2.703  24.374  0.00  0.00    +0.000 C 
ATOM      3  C   UNL     1       8.777  -1.965  24.459  0.00  0.00    +0.000 C 
ATOM      4  N   UNL     1       8.769  -0.835  23.495  0.00  0.00    +0.000 N 
ATOM      5  C   UNL     1       7.564  -0.936  22.564  0.00  0.00    +0.000 C 
ATOM      6  C   UNL     1       7.806  -2.347  21.938  0.00  0.00    +0.000 C 
ATOM      7  C   UNL     1       9.939  -0.681  22.749  0.00  0.00    +0.000 C 
ATOM      8  O   UNL     1      10.490  -1.734  22.386  0.00  0.00    +0.000 OA
ENDROOT
BRANCH   1  11
ATOM      9  N   UNL     1       4.977  -3.899  23.663  0.00  0.00    +0.000 N 
ATOM     10  C   UNL     1       4.490  -3.115  24.799  0.00  0.00    +0.000 C 
ATOM     11  C   UNL     1       5.709  -3.232  22.714  0.00  0.00    +0.000 C 
ATOM     12  O   UNL     1       5.316  -3.233  21.565  0.00  0.00    +0.000 OA
BRANCH   9  14
ATOM     13  C   UNL     1       5.360  -5.929  24.996  0.00  0.00    +0.000 C 
ATOM     14  C   UNL     1       4.931  -5.320  23.717  0.00  0.00    +0.000 C 
ATOM     15  C   UNL     1       3.667  -5.901  23.156  0.00  0.00    +0.000 C 
ENDBRANCH   9  14
ENDBRANCH   1  11
BRANCH   7  16
ATOM     16  C   UNL     1       9.770   0.391  21.659  0.00  0.00    +0.000 C 
ATOM     17 CL   UNL     1      10.232   1.975  22.304  0.00  0.00    +0.000 Cl
ENDBRANCH   7  16
TORSDOF 3
ENDMDL
